# created with PyMOL 2.5.4
@<TRIPOS>MOLECULE
2JC6_C_aligned_pocket
243 197 55              
SMALL
USER_CHARGES
@<TRIPOS>ATOM
1	   N	4.467	24.334	5.024	N.3	1	GLU27	0.000	
2	  CB	3.412	23.533	7.060	C.3	1	GLU27	0.000	
3	  CG	2.301	22.745	6.423	C.3	1	GLU27	0.000	
4	  CD	0.935	23.229	6.831	C.2	1	GLU27	0.000	
5	 OE1	0.263	22.508	7.594	O.co2	1	GLU27	0.000	
6	 OE2	0.534	24.321	6.385	O.co2	1	GLU27	0.000	
7	   O	3.233	16.026	8.955	O.3	2	LEU29	0.000	
8	 CD1	1.983	17.433	3.612	C.3	2	LEU29	0.000	
9	 CD2	1.249	18.922	5.581	C.3	2	LEU29	0.000	
10	  CB	14.359	7.432	11.180	C.3	3	ALA33	0.000	
11	   N	13.927	11.178	6.637	N.3	4	SER35	0.000	
12	  CB	12.760	11.295	4.497	C.3	4	SER35	0.000	
13	  OG	11.585	10.637	4.906	O.3	4	SER35	0.000	
14	  CB	2.365	21.357	2.515	C.3	5	LEU39	0.000	
15	  CG	1.182	21.975	1.765	C.3	5	LEU39	0.000	
16	 CD2	0.297	22.769	2.750	C.3	5	LEU39	0.000	
17	   C	4.925	16.287	-1.318	C.2	6	ALA50	0.000	
18	   O	5.041	15.298	-2.034	O.2	6	ALA50	0.000	
19	  CB	2.775	15.598	-0.189	C.3	6	ALA50	0.000	
20	  CD	10.071	10.377	1.180	C.3	7	LYS52	0.000	
21	  CE	9.017	9.605	1.935	C.3	7	LYS52	0.000	
22	  NZ	9.523	8.261	2.284	N.4	7	LYS52	0.000	
23	 CD1	13.651	10.004	-0.415	C.3	8	ILE54	0.000	
24	   O	15.517	4.816	-6.354	O.3	9	ILE66	0.000	
25	   C	14.521	1.992	-9.376	C.2	10	ASN68	0.000	
26	   O	13.583	2.124	-10.173	O.2	10	ASN68	0.000	
27	  CA	13.014	1.864	-7.439	C.3	11	GLU69	0.000	
28	   C	12.235	3.148	-7.741	C.2	11	GLU69	0.000	
29	   O	11.056	3.087	-8.095	O.2	11	GLU69	0.000	
30	  CB	13.096	1.656	-5.917	C.3	11	GLU69	0.000	
31	  CG	13.434	0.231	-5.496	C.3	11	GLU69	0.000	
32	   N	12.885	4.302	-7.610	N.am	12	ILE70	0.000	
33	  CA	12.233	5.597	-7.883	C.3	12	ILE70	0.000	
34	   C	11.750	5.734	-9.338	C.2	12	ILE70	0.000	
35	   O	10.720	6.353	-9.585	O.2	12	ILE70	0.000	
36	  CB	13.159	6.807	-7.525	C.3	12	ILE70	0.000	
37	 CG1	13.221	7.019	-6.012	C.3	12	ILE70	0.000	
38	 CG2	12.655	8.088	-8.147	C.3	12	ILE70	0.000	
39	 CD1	14.124	8.170	-5.606	C.3	12	ILE70	0.000	
40	  CA	9.364	2.523	-11.552	C.3	13	VAL72	0.000	
41	   C	8.199	3.332	-10.984	C.2	13	VAL72	0.000	
42	   O	7.146	3.429	-11.604	O.2	13	VAL72	0.000	
43	  CB	9.455	1.219	-10.725	C.3	13	VAL72	0.000	
44	   N	8.393	3.918	-9.807	N.am	14	LEU73	0.000	
45	  CA	7.350	4.720	-9.188	C.3	14	LEU73	0.000	
46	   C	6.839	5.832	-10.110	C.2	14	LEU73	0.000	
47	   O	5.637	6.063	-10.184	O.2	14	LEU73	0.000	
48	  CB	7.832	5.320	-7.862	C.3	14	LEU73	0.000	
49	  CG	8.099	4.334	-6.719	C.3	14	LEU73	0.000	
50	 CD1	8.477	5.094	-5.466	C.3	14	LEU73	0.000	
51	 CD2	6.898	3.442	-6.456	C.3	14	LEU73	0.000	
52	   N	7.738	6.514	-10.819	N.am	15	ARG74	0.000	
53	  CA	7.323	7.617	-11.676	C.3	15	ARG74	0.000	
54	   C	6.411	7.139	-12.808	C.3	15	ARG74	0.000	
55	  CB	8.530	8.395	-12.225	C.3	15	ARG74	0.000	
56	   N	6.540	5.869	-13.188	N.3	16	LYS75	0.000	
57	   O	1.784	6.335	-11.281	O.3	17	ILE76	0.000	
58	  CB	3.023	3.797	-10.437	C.3	17	ILE76	0.000	
59	 CG1	4.014	2.632	-10.347	C.3	17	ILE76	0.000	
60	 CD1	4.406	2.232	-8.897	C.3	17	ILE76	0.000	
61	   N	-2.371	5.566	-11.804	N.3	18	HIS78	0.000	
62	   C	-4.428	5.917	-10.589	C.2	18	HIS78	0.000	
63	   O	-3.826	6.523	-9.701	O.2	18	HIS78	0.000	
64	 CG2	-0.309	4.256	-6.388	C.3	19	ILE81	0.000	
65	 CD1	-1.439	2.066	-8.179	C.3	19	ILE81	0.000	
66	  CA	-0.818	8.420	-4.996	C.3	20	VAL82	0.000	
67	   C	0.300	8.507	-6.042	C.2	20	VAL82	0.000	
68	   O	1.185	7.676	-6.062	O.2	20	VAL82	0.000	
69	  CB	-0.228	8.672	-3.599	C.3	20	VAL82	0.000	
70	 CG1	0.591	9.968	-3.581	C.3	20	VAL82	0.000	
71	 CG2	-1.330	8.690	-2.554	C.3	20	VAL82	0.000	
72	   N	0.233	9.521	-6.904	N.am	21	ALA83	0.000	
73	  CB	6.033	9.483	-8.057	C.3	22	LEU84	0.000	
74	  CG	7.474	10.032	-8.052	C.3	22	LEU84	0.000	
75	 CD1	7.793	10.985	-6.893	C.3	22	LEU84	0.000	
76	 CD2	8.454	8.854	-8.011	C.3	22	LEU84	0.000	
77	   O	8.215	14.306	-3.317	O.3	23	LEU96	0.000	
78	 CD2	10.238	9.711	-3.091	C.3	23	LEU96	0.000	
79	   N	5.066	14.518	-4.782	N.3	24	MET98	0.000	
80	  CA	3.932	13.588	-4.746	C.3	24	MET98	0.000	
81	  CB	3.986	12.755	-3.450	C.3	24	MET98	0.000	
82	  CG	5.322	11.991	-3.242	C.3	24	MET98	0.000	
83	  SD	5.353	10.920	-1.771	S.3	24	MET98	0.000	
84	  CE	5.553	12.074	-0.403	C.3	24	MET98	0.000	
85	   C	-0.226	14.209	-3.982	C.2	25	GLN99	0.000	
86	   O	-0.004	13.334	-3.143	O.2	25	GLN99	0.000	
87	  CB	-0.614	12.954	-6.087	C.3	25	GLN99	0.000	
88	  CG	-2.080	13.304	-6.347	C.3	25	GLN99	0.000	
89	  CD	-2.778	12.143	-7.027	C.2	25	GLN99	0.000	
90	 NE2	-4.028	12.340	-7.436	N.pl3	25	GLN99	0.000	
91	 OE1	-2.185	11.071	-7.185	O.2	25	GLN99	0.000	
92	  CA	-1.416	15.670	-2.428	C.3	26	LEU100	0.000	
93	   C	-2.801	15.035	-2.322	C.3	26	LEU100	0.000	
94	  CG	-2.049	17.657	-0.856	C.3	26	LEU100	0.000	
95	 CD1	-0.989	17.491	0.164	C.3	26	LEU100	0.000	
96	   N	-3.035	14.302	-1.238	N.3	27	VAL101	0.000	
97	  CA	-4.336	13.761	-0.894	C.3	27	VAL101	0.000	
98	   C	-4.623	14.342	0.481	C.2	27	VAL101	0.000	
99	   O	-3.704	14.502	1.279	O.2	27	VAL101	0.000	
100	  CB	-4.353	12.198	-0.928	C.3	27	VAL101	0.000	
101	 CG1	-3.999	11.699	-2.319	C.3	27	VAL101	0.000	
102	 CG2	-3.391	11.602	0.075	C.3	27	VAL101	0.000	
103	  CA	-6.228	15.444	1.959	C.3	28	SER102	0.000	
104	   C	-7.467	14.922	2.684	C.2	28	SER102	0.000	
105	   O	-8.068	15.644	3.450	O.2	28	SER102	0.000	
106	  CB	-6.428	16.924	1.590	C.3	28	SER102	0.000	
107	   N	-7.838	13.662	2.491	N.am	29	GLY103	0.000	
108	   C	-8.765	12.369	4.435	C.2	29	GLY103	0.000	
109	   O	-9.663	11.844	5.051	O.2	29	GLY103	0.000	
110	   N	-7.506	12.267	4.810	N.am	30	GLY104	0.000	
111	  CA	-7.142	11.619	6.046	C.3	30	GLY104	0.000	
112	   C	-7.125	10.113	5.922	C.3	30	GLY104	0.000	
113	   N	-6.833	9.476	7.051	N.3	31	GLU105	0.000	
114	  CB	-5.901	7.703	8.436	C.3	31	GLU105	0.000	
115	  CG	-4.516	8.337	8.492	C.3	31	GLU105	0.000	
116	  CD	-3.893	8.339	9.910	C.2	31	GLU105	0.000	
117	 OE1	-3.845	7.282	10.562	O.co2	31	GLU105	0.000	
118	 OE2	-3.425	9.388	10.369	O.co2	31	GLU105	0.000	
119	  CB	-9.473	8.847	11.077	C.3	32	ASP108	0.000	
120	  CG	-8.174	8.790	11.850	C.3	32	ASP108	0.000	
121	 OD2	-7.309	9.616	11.545	 O	32	ASP108	0.000	
122	 CD2	1.591	-0.259	-8.776	C.3	33	LEU135	0.000	
123	   N	3.951	-5.206	-13.843	N.3	34	GLY139	0.000	
124	  CA	5.111	-6.039	-13.449	C.3	34	GLY139	0.000	
125	   C	5.620	-5.767	-12.028	C.2	34	GLY139	0.000	
126	   O	6.729	-6.161	-11.687	O.2	34	GLY139	0.000	
127	   N	4.782	-5.141	-11.199	N.am	35	ILE140	0.000	
128	  CA	5.160	-4.608	-9.894	C.3	35	ILE140	0.000	
129	   C	4.435	-5.335	-8.745	C.2	35	ILE140	0.000	
130	   O	3.201	-5.434	-8.737	O.2	35	ILE140	0.000	
131	  CB	4.799	-3.080	-9.809	C.3	35	ILE140	0.000	
132	 CG1	5.541	-2.281	-10.885	C.3	35	ILE140	0.000	
133	 CG2	5.118	-2.498	-8.443	C.3	35	ILE140	0.000	
134	 CD1	4.943	-0.934	-11.148	C.3	35	ILE140	0.000	
135	   N	5.202	-5.857	-7.796	N.am	36	VAL141	0.000	
136	  CA	4.642	-6.326	-6.535	C.3	36	VAL141	0.000	
137	 CG2	5.399	-8.625	-7.249	C.3	36	VAL141	0.000	
138	  CA	3.722	-3.860	-3.734	C.3	37	HIS142	0.000	
139	 CD2	1.940	-1.035	-2.635	C.3	37	HIS142	0.000	
140	 NE2	2.027	-0.354	-1.448	N.3	37	HIS142	0.000	
141	 OD2	4.760	-1.153	3.946	 O	38	ASP144	0.000	
142	   C	-2.138	3.079	6.490	C.2	39	GLU148	0.000	
143	   O	-1.950	4.261	6.766	O.2	39	GLU148	0.000	
144	  CB	-1.811	1.885	8.733	C.3	39	GLU148	0.000	
145	   N	-1.848	2.557	5.298	N.am	40	ASN149	0.000	
146	  CA	-1.361	3.357	4.191	C.3	40	ASN149	0.000	
147	   O	-2.112	4.035	2.011	O.3	40	ASN149	0.000	
148	  CB	-0.181	2.649	3.558	C.3	40	ASN149	0.000	
149	  CG	1.018	2.597	4.468	C.2	40	ASN149	0.000	
150	 ND2	1.910	1.660	4.192	N.pl3	40	ASN149	0.000	
151	 OD1	1.143	3.380	5.413	O.2	40	ASN149	0.000	
152	  CB	-4.629	8.434	2.479	C.3	41	LEU151	0.000	
153	  CG	-3.353	8.212	3.305	C.3	41	LEU151	0.000	
154	 CD1	-2.324	9.325	2.952	C.3	41	LEU151	0.000	
155	 CD2	-3.639	8.173	4.820	C.3	41	LEU151	0.000	
156	  CD	-11.221	16.113	5.303	C.3	42	GLN155	0.000	
157	 NE2	-9.962	15.852	5.639	N.3	42	GLN155	0.000	
158	   N	-0.836	4.838	-0.665	N.3	43	SER164	0.000	
159	  CA	0.240	5.809	-0.463	C.3	43	SER164	0.000	
160	   C	1.572	5.159	-0.099	C.2	43	SER164	0.000	
161	   O	1.614	4.162	0.625	O.2	43	SER164	0.000	
162	  CB	-0.149	6.763	0.641	C.3	43	SER164	0.000	
163	  OG	-0.321	6.058	1.852	O.3	43	SER164	0.000	
164	  OH	10.190	-8.627	-5.833	O.3	44	TYR198	0.000	
165	   C	-3.811	4.351	18.125	C.2	45	ALA302	0.000	
166	   O	-3.769	5.520	18.517	O.2	45	ALA302	0.000	
167	   N	-2.822	3.765	17.460	N.am	46	LYS303	0.000	
168	  CA	-1.573	4.425	17.173	C.3	46	LYS303	0.000	
169	   C	-1.476	4.585	15.649	C.2	46	LYS303	0.000	
170	   O	-1.817	3.663	14.904	O.2	46	LYS303	0.000	
171	   N	-1.052	5.767	15.202	N.am	47	SER304	0.000	
172	  CA	-0.882	6.081	13.795	C.3	47	SER304	0.000	
173	   C	0.529	6.596	13.541	C.2	47	SER304	0.000	
174	   O	0.996	7.503	14.228	O.2	47	SER304	0.000	
175	  CB	-1.881	7.149	13.349	C.3	47	SER304	0.000	
176	  OG	-1.649	7.529	12.004	O.3	47	SER304	0.000	
177	   N	1.190	6.015	12.538	N.am	48	LYS305	0.000	
178	  CA	2.520	6.455	12.099	C.3	48	LYS305	0.000	
179	   C	2.515	7.806	11.393	C.2	48	LYS305	0.000	
180	   O	3.540	8.451	11.348	O.2	48	LYS305	0.000	
181	  CB	3.152	5.401	11.175	C.3	48	LYS305	0.000	
182	   N	1.374	8.233	10.845	N.am	49	TRP306	0.000	
183	  CA	1.263	9.557	10.229	C.3	49	TRP306	0.000	
184	   C	1.240	10.625	11.328	C.2	49	TRP306	0.000	
185	   O	1.915	11.639	11.227	O.2	49	TRP306	0.000	
186	  CB	-0.002	9.679	9.346	C.3	49	TRP306	0.000	
187	  CG	-0.105	8.647	8.311	C.2	49	TRP306	0.000	
188	 CD1	-0.671	7.396	8.444	C.2	49	TRP306	0.000	
189	 CD2	0.386	8.721	6.975	C.2	49	TRP306	0.000	
190	 CE2	0.078	7.487	6.345	C.2	49	TRP306	0.000	
191	 CE3	1.052	9.703	6.240	C.2	49	TRP306	0.000	
192	 NE1	-0.563	6.705	7.265	N.pl3	49	TRP306	0.000	
193	 CZ2	0.413	7.219	5.026	C.2	49	TRP306	0.000	
194	 CZ3	1.385	9.434	4.933	C.2	49	TRP306	0.000	
195	 CH2	1.060	8.202	4.336	C.2	49	TRP306	0.000	
196	   N	0.457	10.372	12.367	N.am	50	ARG307	0.000	
197	  CA	0.412	11.220	13.567	C.3	50	ARG307	0.000	
198	  CA	0.429	11.261	13.528	C.3	50	ARG307	0.000	
199	   C	1.786	11.267	14.253	C.3	50	ARG307	0.000	
200	   O	2.235	12.307	14.666	O.2	50	ARG307	0.000	
201	  CB	-0.676	10.701	14.519	C.3	50	ARG307	0.000	
202	  CB	-0.730	10.921	14.478	C.3	50	ARG307	0.000	
203	  CG	-0.803	11.418	15.879	C.3	50	ARG307	0.000	
204	  CG	-2.034	11.744	14.260	C.3	50	ARG307	0.000	
205	  CD	-1.145	10.424	17.017	C.3	50	ARG307	0.000	
206	  CD	-3.022	11.115	13.271	C.3	50	ARG307	0.000	
207	  NE	-2.416	10.672	17.711	N.pl3	50	ARG307	0.000	
208	  NE	-4.042	10.161	13.762	N.pl3	50	ARG307	0.000	
209	  CZ	-3.438	9.812	17.817	C.2	50	ARG307	0.000	
210	  CZ	-4.065	9.480	14.918	C.cat	50	ARG307	0.000	
211	 NH1	-3.418	8.591	17.256	N.pl3	50	ARG307	0.000	
212	 NH1	-3.129	9.577	15.852	N.pl3	50	ARG307	0.000	
213	 NH2	-5.073	8.650	15.143	N.pl3	50	ARG307	0.000	
214	   N	2.461	10.121	14.356	N.3	51	GLN308	0.000	
215	  CA	3.827	10.086	14.932	C.3	51	GLN308	0.000	
216	   C	4.835	10.916	14.141	C.2	51	GLN308	0.000	
217	   O	5.683	11.590	14.736	O.2	51	GLN308	0.000	
218	  CB	4.392	8.662	15.022	C.3	51	GLN308	0.000	
219	   N	4.771	10.822	12.810	N.am	52	ALA309	0.000	
220	  CA	5.671	11.583	11.907	C.3	52	ALA309	0.000	
221	   C	5.368	13.064	12.046	C.2	52	ALA309	0.000	
222	   O	6.282	13.860	12.096	O.2	52	ALA309	0.000	
223	  CB	5.500	11.126	10.435	C.3	52	ALA309	0.000	
224	   N	4.080	13.412	12.144	N.am	53	PHE310	0.000	
225	  CA	3.648	14.788	12.370	C.3	53	PHE310	0.000	
226	   C	4.223	15.284	13.673	C.3	53	PHE310	0.000	
227	  CB	2.103	14.947	12.362	C.3	53	PHE310	0.000	
228	  CG	1.634	16.323	12.793	C.2	53	PHE310	0.000	
229	 CD1	1.868	17.442	11.993	C.2	53	PHE310	0.000	
230	 CD2	0.985	16.506	14.020	C.2	53	PHE310	0.000	
231	 CE1	1.462	18.724	12.406	C.2	53	PHE310	0.000	
232	 CE2	0.590	17.777	14.440	C.2	53	PHE310	0.000	
233	  CZ	0.823	18.883	13.628	C.2	53	PHE310	0.000	
234	   N	4.148	14.460	14.724	N.3	54	ASN311	0.000	
235	  CA	4.609	14.858	16.054	C.3	54	ASN311	0.000	
236	   C	6.112	15.111	16.213	C.2	54	ASN311	0.000	
237	   O	6.483	15.938	17.047	O.2	54	ASN311	0.000	
238	  CB	4.072	13.906	17.116	C.3	54	ASN311	0.000	
239	  CG	2.581	14.133	17.406	C.2	54	ASN311	0.000	
240	 ND2	1.920	13.097	17.863	N.pl3	54	ASN311	0.000	
241	 OD1	2.043	15.224	17.210	O.2	54	ASN311	0.000	
242	   N	6.958	14.391	15.448	N.am	55	ALA312	0.000	
243	  CA	8.246	14.942	14.914	C.3	55	ALA312	0.000	
@<TRIPOS>BOND
1 2 3 1
2 3 4 1
3 4 5 2
4 4 6 1
5 12 13 1
6 14 15 1
7 15 16 1
8 17 18 2
9 20 21 1
10 21 22 1
11 25 26 2
12 27 28 1
13 27 30 1
14 28 29 2
15 28 32 1
16 30 31 1
17 32 33 1
18 33 34 1
19 33 36 1
20 34 35 2
21 36 37 1
22 36 38 1
23 37 39 1
24 40 41 1
25 40 43 1
26 41 42 2
27 41 44 1
28 44 45 1
29 45 46 1
30 45 48 1
31 46 47 2
32 46 52 1
33 48 49 1
34 49 50 1
35 49 51 1
36 52 53 1
37 53 54 1
38 53 55 1
39 54 56 1
40 58 59 1
41 59 60 1
42 62 63 2
43 66 67 1
44 66 69 1
45 67 68 2
46 67 72 1
47 69 70 1
48 69 71 1
49 73 74 1
50 74 75 1
51 74 76 1
52 79 80 1
53 80 81 1
54 81 82 1
55 82 83 1
56 83 84 1
57 85 86 2
58 87 88 1
59 88 89 1
60 89 90 1
61 89 91 2
62 92 93 1
63 93 96 1
64 94 95 1
65 96 97 1
66 97 98 1
67 97 100 1
68 98 99 2
69 100 101 1
70 100 102 1
71 103 104 1
72 103 106 1
73 104 105 2
74 104 107 1
75 108 109 2
76 108 110 1
77 110 111 1
78 111 112 1
79 112 113 1
80 114 115 1
81 115 116 1
82 116 117 2
83 116 118 1
84 119 120 1
85 120 121 1
86 123 124 1
87 124 125 1
88 125 126 2
89 125 127 1
90 127 128 1
91 128 129 1
92 128 131 1
93 129 130 2
94 129 135 1
95 131 132 1
96 131 133 1
97 132 134 1
98 135 136 1
99 139 140 1
100 142 143 2
101 142 145 1
102 145 146 1
103 146 148 1
104 148 149 1
105 149 150 1
106 149 151 2
107 152 153 1
108 153 154 1
109 153 155 1
110 156 157 1
111 158 159 1
112 159 160 1
113 159 162 1
114 160 161 2
115 162 163 1
116 165 166 2
117 165 167 1
118 167 168 1
119 168 169 1
120 169 170 2
121 169 171 1
122 171 172 1
123 172 173 1
124 172 175 1
125 173 174 2
126 173 177 1
127 175 176 1
128 177 178 1
129 178 179 1
130 178 181 1
131 179 180 2
132 179 182 1
133 182 183 1
134 183 184 1
135 183 186 1
136 184 185 2
137 184 196 1
138 186 187 1
139 187 188 2
140 187 189 1
141 188 192 1
142 189 190 2
143 189 191 1
144 190 192 1
145 190 193 1
146 191 194 2
147 193 195 2
148 194 195 1
149 196 197 1
150 196 198 1
151 197 199 1
152 197 201 1
153 198 199 1
154 198 202 1
155 199 200 2
156 199 214 1
157 201 203 1
158 202 204 1
159 203 205 1
160 204 206 1
161 205 207 1
162 206 208 1
163 207 209 1
164 208 210 1
165 209 211 2
166 210 212 2
167 210 213 1
168 214 215 1
169 215 216 1
170 215 218 1
171 216 217 2
172 216 219 1
173 219 220 1
174 220 221 1
175 220 223 1
176 221 222 2
177 221 224 1
178 224 225 1
179 225 226 1
180 225 227 1
181 226 234 1
182 227 228 1
183 228 229 2
184 228 230 1
185 229 231 1
186 230 232 2
187 231 233 2
188 232 233 1
189 234 235 1
190 235 236 1
191 235 238 1
192 236 237 2
193 236 242 1
194 238 239 1
195 239 240 1
196 239 241 2
197 242 243 1
@<TRIPOS>SUBSTRUCTURE
1	GLU27	1	RESIDUE	1 C	GLU
2	LEU29	7	RESIDUE	1 C	LEU
3	ALA33	10	RESIDUE	1 C	ALA
4	SER35	11	RESIDUE	1 C	SER
5	LEU39	14	RESIDUE	1 C	LEU
6	ALA50	17	RESIDUE	1 C	ALA
7	LYS52	20	RESIDUE	1 C	LYS
8	ILE54	23	RESIDUE	1 C	ILE
9	ILE66	24	RESIDUE	1 C	ILE
10	ASN68	25	RESIDUE	1 C	ASN
11	GLU69	27	RESIDUE	1 C	GLU
12	ILE70	32	RESIDUE	1 C	ILE
13	VAL72	40	RESIDUE	1 C	VAL
14	LEU73	44	RESIDUE	1 C	LEU
15	ARG74	52	RESIDUE	1 C	ARG
16	LYS75	56	RESIDUE	1 C	LYS
17	ILE76	57	RESIDUE	1 C	ILE
18	HIS78	61	RESIDUE	1 C	HIS
19	ILE81	64	RESIDUE	1 C	ILE
20	VAL82	66	RESIDUE	1 C	VAL
21	ALA83	72	RESIDUE	1 C	ALA
22	LEU84	73	RESIDUE	1 C	LEU
23	LEU96	77	RESIDUE	1 C	LEU
24	MET98	79	RESIDUE	1 C	MET
25	GLN99	85	RESIDUE	1 C	GLN
26	LEU100	92	RESIDUE	1 C	LEU
27	VAL101	96	RESIDUE	1 C	VAL
28	SER102	103	RESIDUE	1 C	SER
29	GLY103	107	RESIDUE	1 C	GLY
30	GLY104	110	RESIDUE	1 C	GLY
31	GLU105	113	RESIDUE	1 C	GLU
32	ASP108	119	RESIDUE	1 C	ASP
33	LEU135	122	RESIDUE	1 C	LEU
34	GLY139	123	RESIDUE	1 C	GLY
35	ILE140	127	RESIDUE	1 C	ILE
36	VAL141	135	RESIDUE	1 C	VAL
37	HIS142	138	RESIDUE	1 C	HIS
38	ASP144	141	RESIDUE	1 C	ASP
39	GLU148	142	RESIDUE	1 C	GLU
40	ASN149	145	RESIDUE	1 C	ASN
41	LEU151	152	RESIDUE	1 C	LEU
42	GLN155	156	RESIDUE	1 C	GLN
43	SER164	158	RESIDUE	1 C	SER
44	TYR198	164	RESIDUE	1 C	TYR
45	ALA302	165	RESIDUE	1 C	ALA
46	LYS303	167	RESIDUE	1 C	LYS
47	SER304	171	RESIDUE	1 C	SER
48	LYS305	177	RESIDUE	1 C	LYS
49	TRP306	182	RESIDUE	1 C	TRP
50	ARG307	196	RESIDUE	1 C	ARG
51	GLN308	214	RESIDUE	1 C	GLN
52	ALA309	219	RESIDUE	1 C	ALA
53	PHE310	224	RESIDUE	1 C	PHE
54	ASN311	234	RESIDUE	1 C	ASN
55	ALA312	242	RESIDUE	1 C	ALA
