# created with PyMOL 2.5.4
@<TRIPOS>MOLECULE
2OSC_A_aligned_pocket
174 137 43              
SMALL
USER_CHARGES
@<TRIPOS>ATOM
1	 CG1	4.908	14.459	2.865	C.3	1	VAL838	0.000	
2	 CG2	6.719	12.907	3.612	C.3	1	VAL838	0.000	
3	  CD	-0.604	20.222	4.254	C.3	2	LYS840	0.000	
4	  CE	-1.037	19.308	5.388	C.3	2	LYS840	0.000	
5	  NZ	-2.114	19.912	6.217	N.4	2	LYS840	0.000	
6	   C	3.965	16.170	-1.659	C.2	3	ALA853	0.000	
7	   O	4.120	15.370	-2.582	O.2	3	ALA853	0.000	
8	  CB	2.016	15.323	-0.348	C.3	3	ALA853	0.000	
9	  CD	9.554	10.732	1.179	C.3	4	LYS855	0.000	
10	  CE	9.898	9.893	-0.037	C.3	4	LYS855	0.000	
11	  NZ	9.600	8.459	0.222	N.4	4	LYS855	0.000	
12	   O	14.385	5.362	-3.815	O.3	5	ASP868	0.000	
13	   N	15.676	5.110	-6.591	N.3	6	GLY871	0.000	
14	  CA	14.874	3.924	-6.813	C.3	6	GLY871	0.000	
15	   C	13.402	4.283	-6.894	C.2	6	GLY871	0.000	
16	   O	12.777	4.132	-7.944	O.2	6	GLY871	0.000	
17	   N	12.856	4.783	-5.789	N.am	7	GLU872	0.000	
18	  CA	11.450	5.154	-5.714	C.3	7	GLU872	0.000	
19	   C	10.940	5.944	-6.917	C.2	7	GLU872	0.000	
20	   O	9.840	5.681	-7.411	O.2	7	GLU872	0.000	
21	  CB	11.182	5.937	-4.425	C.3	7	GLU872	0.000	
22	  CG	9.722	6.320	-4.224	C.3	7	GLU872	0.000	
23	  CD	9.452	6.905	-2.849	C.2	7	GLU872	0.000	
24	 OE1	10.270	7.721	-2.377	O.co2	7	GLU872	0.000	
25	 OE2	8.416	6.556	-2.244	O.co2	7	GLU872	0.000	
26	   N	11.726	6.908	-7.393	N.am	8	LEU873	0.000	
27	  CA	11.307	7.703	-8.544	C.3	8	LEU873	0.000	
28	   C	11.264	6.821	-9.785	C.2	8	LEU873	0.000	
29	   O	10.295	6.843	-10.542	O.2	8	LEU873	0.000	
30	  CB	12.263	8.877	-8.782	C.3	8	LEU873	0.000	
31	   N	12.322	6.046	-9.989	N.am	9	GLU874	0.000	
32	  CA	9.603	3.029	-9.690	C.3	10	VAL875	0.000	
33	   O	7.494	3.227	-10.817	O.3	10	VAL875	0.000	
34	  CB	9.545	2.537	-8.224	C.3	10	VAL875	0.000	
35	 CG1	8.251	1.793	-7.978	C.3	10	VAL875	0.000	
36	 CG2	10.736	1.628	-7.934	C.3	10	VAL875	0.000	
37	   N	8.072	4.901	-9.434	N.3	11	LEU876	0.000	
38	  CA	6.845	5.655	-9.673	C.3	11	LEU876	0.000	
39	   C	6.674	6.035	-11.146	C.2	11	LEU876	0.000	
40	   O	5.552	6.176	-11.628	O.2	11	LEU876	0.000	
41	  CB	6.825	6.922	-8.809	C.3	11	LEU876	0.000	
42	  CG	6.981	6.777	-7.292	C.3	11	LEU876	0.000	
43	 CD1	7.136	8.154	-6.686	C.3	11	LEU876	0.000	
44	 CD2	5.786	6.050	-6.691	C.3	11	LEU876	0.000	
45	   N	7.785	6.214	-11.855	N.am	12	CYS877	0.000	
46	  CA	7.726	6.567	-13.271	C.3	12	CYS877	0.000	
47	  CG	4.438	2.519	-9.999	C.3	13	LEU879	0.000	
48	 CD1	3.925	3.079	-8.691	C.3	13	LEU879	0.000	
49	 CD2	4.381	1.001	-9.980	C.3	13	LEU879	0.000	
50	   O	-4.398	6.089	-10.536	O.3	14	HIS882	0.000	
51	   O	-2.809	6.558	-7.815	O.3	15	ILE885	0.000	
52	   O	-0.069	7.339	-8.456	O.3	16	ILE886	0.000	
53	  CB	0.403	7.535	-5.216	C.3	16	ILE886	0.000	
54	 CG1	1.440	6.442	-5.470	C.3	16	ILE886	0.000	
55	 CG2	-0.085	7.497	-3.786	C.3	16	ILE886	0.000	
56	 CD1	2.137	6.537	-6.793	C.3	16	ILE886	0.000	
57	   N	-0.490	9.346	-7.542	N.3	17	ASN887	0.000	
58	  CB	-1.342	11.000	-9.133	C.3	17	ASN887	0.000	
59	 CD1	6.473	9.789	-10.440	C.3	18	LEU888	0.000	
60	   C	8.122	14.214	-4.413	C.2	19	LEU900	0.000	
61	   O	7.715	14.116	-3.258	O.2	19	LEU900	0.000	
62	 CD1	9.625	9.941	-5.357	C.3	19	LEU900	0.000	
63	 CD2	8.049	11.636	-6.337	C.3	19	LEU900	0.000	
64	  CB	2.567	11.871	-5.106	C.3	20	ILE902	0.000	
65	 CG1	2.155	11.940	-3.637	C.3	20	ILE902	0.000	
66	 CG2	3.894	11.141	-5.256	C.3	20	ILE902	0.000	
67	 CD1	1.851	10.594	-3.025	C.3	20	ILE902	0.000	
68	   O	-0.971	13.192	-3.590	O.3	21	GLU903	0.000	
69	  CB	-2.082	14.034	-6.448	C.3	21	GLU903	0.000	
70	 OE2	-4.005	13.643	-8.300	 O	21	GLU903	0.000	
71	  CA	-2.080	15.171	-2.006	C.3	22	TYR904	0.000	
72	   C	-3.386	14.452	-1.733	C.3	22	TYR904	0.000	
73	  CB	-2.137	16.558	-1.364	C.3	22	TYR904	0.000	
74	  CG	-2.316	16.517	0.136	C.2	22	TYR904	0.000	
75	 CD1	-1.345	15.955	0.952	C.2	22	TYR904	0.000	
76	 CD2	-3.460	17.024	0.737	C.2	22	TYR904	0.000	
77	 CE1	-1.506	15.899	2.319	C.2	22	TYR904	0.000	
78	 CE2	-3.628	16.968	2.110	C.2	22	TYR904	0.000	
79	  CZ	-2.645	16.404	2.893	C.2	22	TYR904	0.000	
80	  OH	-2.795	16.342	4.261	O.3	22	TYR904	0.000	
81	   N	-3.424	13.731	-0.618	N.3	23	ALA905	0.000	
82	  CA	-4.618	12.999	-0.215	C.3	23	ALA905	0.000	
83	   C	-5.123	13.623	1.074	C.2	23	ALA905	0.000	
84	   O	-4.599	13.372	2.158	O.2	23	ALA905	0.000	
85	  CB	-4.297	11.536	-0.002	C.3	23	ALA905	0.000	
86	  CA	-6.812	15.178	2.056	C.3	24	PRO906	0.000	
87	   C	-7.459	14.330	3.156	C.2	24	PRO906	0.000	
88	   O	-7.867	14.869	4.184	O.2	24	PRO906	0.000	
89	  CB	-7.835	16.042	1.322	C.3	24	PRO906	0.000	
90	   N	-7.547	13.018	2.958	N.am	25	HIS907	0.000	
91	  CA	-8.176	12.159	3.962	C.3	25	HIS907	0.000	
92	   C	-7.256	11.169	4.678	C.2	25	HIS907	0.000	
93	   O	-7.722	10.306	5.427	O.2	25	HIS907	0.000	
94	   N	-5.953	11.293	4.454	N.am	26	GLY908	0.000	
95	  CA	-5.007	10.415	5.121	C.3	26	GLY908	0.000	
96	   C	-4.984	8.963	4.675	C.3	26	GLY908	0.000	
97	   N	-4.317	8.114	5.461	N.3	27	ASN909	0.000	
98	  CA	-4.231	6.701	5.135	C.3	27	ASN909	0.000	
99	  CB	-3.015	6.032	5.819	C.3	27	ASN909	0.000	
100	  CG	-3.079	6.059	7.346	C.2	27	ASN909	0.000	
101	 ND2	-2.135	6.758	7.955	N.pl3	27	ASN909	0.000	
102	 OD1	-3.951	5.447	7.967	O.2	27	ASN909	0.000	
103	  CB	-5.742	7.181	10.241	C.3	28	ASP912	0.000	
104	  CG	-4.317	6.923	10.704	C.2	28	ASP912	0.000	
105	 OD1	-4.139	6.179	11.697	O.co2	28	ASP912	0.000	
106	 OD2	-3.379	7.473	10.088	O.co2	28	ASP912	0.000	
107	  CA	4.434	-7.478	-13.223	C.3	29	GLN959	0.000	
108	   C	4.950	-6.728	-11.994	C.2	29	GLN959	0.000	
109	   O	6.083	-6.938	-11.567	O.2	29	GLN959	0.000	
110	   N	4.138	-5.842	-11.435	N.am	30	PHE960	0.000	
111	  CA	4.560	-5.097	-10.267	C.3	30	PHE960	0.000	
112	   C	4.123	-5.823	-9.011	C.2	30	PHE960	0.000	
113	   O	2.932	-6.086	-8.807	O.2	30	PHE960	0.000	
114	  CB	3.945	-3.704	-10.264	C.3	30	PHE960	0.000	
115	  CG	4.293	-2.892	-9.053	C.2	30	PHE960	0.000	
116	 CD1	5.521	-2.254	-8.958	C.2	30	PHE960	0.000	
117	 CD2	3.399	-2.772	-8.004	C.2	30	PHE960	0.000	
118	 CE1	5.848	-1.509	-7.834	C.2	30	PHE960	0.000	
119	 CE2	3.720	-2.029	-6.875	C.2	30	PHE960	0.000	
120	  CZ	4.946	-1.398	-6.794	C.2	30	PHE960	0.000	
121	   N	5.086	-6.168	-8.170	N.am	31	ILE961	0.000	
122	  CA	4.751	-6.828	-6.922	C.3	31	ILE961	0.000	
123	   C	4.889	-5.766	-5.845	C.3	31	ILE961	0.000	
124	  CB	5.665	-8.007	-6.641	C.3	31	ILE961	0.000	
125	 CD2	1.959	-1.757	-3.139	C.3	32	HIS962	0.000	
126	  NE	9.475	-7.876	-3.395	N.pl3	33	ARG963	0.000	
127	  CZ	9.587	-7.633	-4.695	C.cat	33	ARG963	0.000	
128	 NH1	10.140	-8.543	-5.491	N.pl3	33	ARG963	0.000	
129	 NH2	9.165	-6.477	-5.198	N.pl3	33	ARG963	0.000	
130	   C	-1.070	2.336	5.244	C.2	34	ARG968	0.000	
131	   O	-0.779	3.531	5.155	O.2	34	ARG968	0.000	
132	  CB	-0.585	1.312	7.465	C.3	34	ARG968	0.000	
133	  CB	0.713	0.832	2.469	C.3	35	ASN969	0.000	
134	  CG	2.049	0.800	3.195	C.2	35	ASN969	0.000	
135	 ND2	2.451	-0.376	3.677	N.pl3	35	ASN969	0.000	
136	 OD1	2.709	1.825	3.319	O.2	35	ASN969	0.000	
137	  CG	-2.193	7.862	0.610	C.3	36	LEU971	0.000	
138	 CD1	-1.366	8.672	-0.382	C.3	36	LEU971	0.000	
139	 CD2	-2.278	8.587	1.941	C.3	36	LEU971	0.000	
140	   O	-0.889	3.908	-4.218	O.3	37	ILE980	0.000	
141	 CG2	-0.874	0.471	-4.205	C.3	37	ILE980	0.000	
142	  CA	0.741	3.725	-1.957	C.3	38	ALA981	0.000	
143	   C	1.744	2.829	-1.236	C.2	38	ALA981	0.000	
144	   O	1.511	1.639	-1.078	O.2	38	ALA981	0.000	
145	  CB	0.451	4.959	-1.114	C.3	38	ALA981	0.000	
146	   N	2.865	3.408	-0.815	N.am	39	ASP982	0.000	
147	  CA	3.891	2.675	-0.076	C.3	39	ASP982	0.000	
148	   C	4.795	3.678	0.627	C.2	39	ASP982	0.000	
149	   O	5.641	4.314	-0.003	O.2	39	ASP982	0.000	
150	  CB	4.739	1.794	-0.997	C.3	39	ASP982	0.000	
151	  CG	5.651	0.845	-0.206	C.2	39	ASP982	0.000	
152	 OD1	6.085	1.230	0.904	O.co2	39	ASP982	0.000	
153	 OD2	5.939	-0.275	-0.687	O.co2	39	ASP982	0.000	
154	   N	4.612	3.802	1.939	N.am	40	PHE983	0.000	
155	  CA	5.378	4.745	2.755	C.3	40	PHE983	0.000	
156	   C	6.667	4.183	3.353	C.2	40	PHE983	0.000	
157	   O	7.445	4.932	3.943	O.2	40	PHE983	0.000	
158	  CB	4.493	5.287	3.889	C.3	40	PHE983	0.000	
159	  CG	3.179	5.834	3.419	C.2	40	PHE983	0.000	
160	 CD1	1.989	5.336	3.923	C.2	40	PHE983	0.000	
161	 CD2	3.130	6.823	2.451	C.2	40	PHE983	0.000	
162	 CE1	0.780	5.812	3.468	C.2	40	PHE983	0.000	
163	 CE2	1.922	7.305	1.989	C.2	40	PHE983	0.000	
164	  CZ	0.744	6.800	2.497	C.2	40	PHE983	0.000	
165	   N	6.885	2.877	3.217	N.am	41	GLY984	0.000	
166	  CA	8.098	2.272	3.750	C.3	41	GLY984	0.000	
167	   C	7.906	1.383	4.971	C.2	41	GLY984	0.000	
168	   O	6.891	1.469	5.663	O.2	41	GLY984	0.000	
169	   N	8.887	0.521	5.234	N.am	42	LEU985	0.000	
170	  CA	8.825	-0.391	6.378	C.3	42	LEU985	0.000	
171	   C	9.287	0.304	7.653	C.2	42	LEU985	0.000	
172	   O	10.486	0.415	7.910	O.2	42	LEU985	0.000	
173	  CB	9.690	-1.647	6.117	C.3	42	LEU985	0.000	
174	   O	9.151	-4.341	9.592	O.3	43	ARG999	0.000	
@<TRIPOS>BOND
1 3 4 1
2 4 5 1
3 6 7 2
4 9 10 1
5 10 11 1
6 13 14 1
7 14 15 1
8 15 16 2
9 15 17 1
10 17 18 1
11 18 19 1
12 18 21 1
13 19 20 2
14 19 26 1
15 21 22 1
16 22 23 1
17 23 24 2
18 23 25 1
19 26 27 1
20 27 28 1
21 27 30 1
22 28 29 2
23 28 31 1
24 32 34 1
25 34 35 1
26 34 36 1
27 37 38 1
28 38 39 1
29 38 41 1
30 39 40 2
31 39 45 1
32 41 42 1
33 42 43 1
34 42 44 1
35 45 46 1
36 47 48 1
37 47 49 1
38 53 54 1
39 53 55 1
40 54 56 1
41 60 61 2
42 64 65 1
43 64 66 1
44 65 67 1
45 71 72 1
46 71 73 1
47 72 81 1
48 73 74 1
49 74 75 2
50 74 76 1
51 75 77 1
52 76 78 2
53 77 79 2
54 78 79 1
55 79 80 1
56 81 82 1
57 82 83 1
58 82 85 1
59 83 84 2
60 86 87 1
61 86 89 1
62 87 88 2
63 87 90 1
64 90 91 1
65 91 92 1
66 92 93 2
67 92 94 1
68 94 95 1
69 95 96 1
70 96 97 1
71 97 98 1
72 98 99 1
73 99 100 1
74 100 101 1
75 100 102 2
76 103 104 1
77 104 105 2
78 104 106 1
79 107 108 1
80 108 109 2
81 108 110 1
82 110 111 1
83 111 112 1
84 111 114 1
85 112 113 2
86 112 121 1
87 114 115 1
88 115 116 2
89 115 117 1
90 116 118 1
91 117 119 2
92 118 120 2
93 119 120 1
94 121 122 1
95 122 123 1
96 122 124 1
97 126 127 1
98 127 128 2
99 127 129 1
100 130 131 2
101 133 134 1
102 134 135 1
103 134 136 2
104 137 138 1
105 137 139 1
106 142 143 1
107 142 145 1
108 143 144 2
109 143 146 1
110 146 147 1
111 147 148 1
112 147 150 1
113 148 149 2
114 148 154 1
115 150 151 1
116 151 152 2
117 151 153 1
118 154 155 1
119 155 156 1
120 155 158 1
121 156 157 2
122 156 165 1
123 158 159 1
124 159 160 2
125 159 161 1
126 160 162 1
127 161 163 2
128 162 164 2
129 163 164 1
130 165 166 1
131 166 167 1
132 167 168 2
133 167 169 1
134 169 170 1
135 170 171 1
136 170 173 1
137 171 172 2
@<TRIPOS>SUBSTRUCTURE
1	VAL838	1	RESIDUE	1 A	VAL
2	LYS840	3	RESIDUE	1 A	LYS
3	ALA853	6	RESIDUE	1 A	ALA
4	LYS855	9	RESIDUE	1 A	LYS
5	ASP868	12	RESIDUE	1 A	ASP
6	GLY871	13	RESIDUE	1 A	GLY
7	GLU872	17	RESIDUE	1 A	GLU
8	LEU873	26	RESIDUE	1 A	LEU
9	GLU874	31	RESIDUE	1 A	GLU
10	VAL875	32	RESIDUE	1 A	VAL
11	LEU876	37	RESIDUE	1 A	LEU
12	CYS877	45	RESIDUE	1 A	CYS
13	LEU879	47	RESIDUE	1 A	LEU
14	HIS882	50	RESIDUE	1 A	HIS
15	ILE885	51	RESIDUE	1 A	ILE
16	ILE886	52	RESIDUE	1 A	ILE
17	ASN887	57	RESIDUE	1 A	ASN
18	LEU888	59	RESIDUE	1 A	LEU
19	LEU900	60	RESIDUE	1 A	LEU
20	ILE902	64	RESIDUE	1 A	ILE
21	GLU903	68	RESIDUE	1 A	GLU
22	TYR904	71	RESIDUE	1 A	TYR
23	ALA905	81	RESIDUE	1 A	ALA
24	PRO906	86	RESIDUE	1 A	PRO
25	HIS907	90	RESIDUE	1 A	HIS
26	GLY908	94	RESIDUE	1 A	GLY
27	ASN909	97	RESIDUE	1 A	ASN
28	ASP912	103	RESIDUE	1 A	ASP
29	GLN959	107	RESIDUE	1 A	GLN
30	PHE960	110	RESIDUE	1 A	PHE
31	ILE961	121	RESIDUE	1 A	ILE
32	HIS962	125	RESIDUE	1 A	HIS
33	ARG963	126	RESIDUE	1 A	ARG
34	ARG968	130	RESIDUE	1 A	ARG
35	ASN969	133	RESIDUE	1 A	ASN
36	LEU971	137	RESIDUE	1 A	LEU
37	ILE980	140	RESIDUE	1 A	ILE
38	ALA981	142	RESIDUE	1 A	ALA
39	ASP982	146	RESIDUE	1 A	ASP
40	PHE983	154	RESIDUE	1 A	PHE
41	GLY984	165	RESIDUE	1 A	GLY
42	LEU985	169	RESIDUE	1 A	LEU
43	ARG999	174	RESIDUE	1 A	ARG
