# created with PyMOL 2.5.4
@<TRIPOS>MOLECULE
3HDN_A_aligned_pocket
262 219 56              
SMALL
USER_CHARGES
@<TRIPOS>ATOM
1	  CB	3.578	23.865	5.371	C.3	1	LEU101	0.000	
2	  CG	3.091	25.017	4.486	C.3	1	LEU101	0.000	
3	 CD1	3.123	24.625	3.013	C.3	1	LEU101	0.000	
4	 CD2	1.683	25.428	4.893	C.3	1	LEU101	0.000	
5	  CG	2.470	20.143	7.964	C.3	2	LYS102	0.000	
6	  CD	1.263	19.955	8.869	C.3	2	LYS102	0.000	
7	  CE	0.078	19.403	8.091	C.3	2	LYS102	0.000	
8	  NZ	-1.111	19.178	8.961	N.4	2	LYS102	0.000	
9	  CA	3.496	14.654	6.551	C.3	3	ILE104	0.000	
10	   C	3.664	13.269	7.185	C.2	3	ILE104	0.000	
11	   O	2.830	12.853	7.992	O.2	3	ILE104	0.000	
12	  CB	3.145	14.545	5.040	C.3	3	ILE104	0.000	
13	 CG1	2.397	15.801	4.578	C.3	3	ILE104	0.000	
14	 CG2	2.302	13.302	4.761	C.3	3	ILE104	0.000	
15	 CD1	2.041	15.817	3.096	C.3	3	ILE104	0.000	
16	   N	4.739	12.569	6.828	N.am	4	GLY105	0.000	
17	  CA	4.978	11.221	7.339	C.3	4	GLY105	0.000	
18	   C	6.312	10.614	6.950	C.2	4	GLY105	0.000	
19	   O	6.710	10.654	5.783	O.2	4	GLY105	0.000	
20	   N	6.998	10.050	7.942	N.am	5	LYS106	0.000	
21	  CA	8.258	9.341	7.729	C.3	5	LYS106	0.000	
22	   C	7.986	7.859	7.470	C.2	5	LYS106	0.000	
23	   O	7.395	7.167	8.311	O.2	5	LYS106	0.000	
24	  CB	9.183	9.494	8.943	C.3	5	LYS106	0.000	
25	   N	8.416	7.383	6.301	N.am	6	GLY107	0.000	
26	  CA	8.282	5.972	5.942	C.3	6	GLY107	0.000	
27	   C	9.606	5.231	5.980	C.2	6	GLY107	0.000	
28	   O	10.568	5.683	6.617	O.2	6	GLY107	0.000	
29	   N	9.649	4.086	5.297	N.am	7	SER108	0.000	
30	  CA	10.858	3.266	5.227	C.3	7	SER108	0.000	
31	   C	11.870	3.823	4.227	C.2	7	SER108	0.000	
32	   O	13.078	3.630	4.384	O.2	7	SER108	0.000	
33	  CB	10.507	1.823	4.859	C.3	7	SER108	0.000	
34	  OG	9.698	1.224	5.856	O.3	7	SER108	0.000	
35	   N	11.371	4.514	3.205	N.am	8	PHE109	0.000	
36	  CA	12.207	4.991	2.105	C.3	8	PHE109	0.000	
37	   C	12.271	6.522	2.043	C.2	8	PHE109	0.000	
38	   O	12.219	7.116	0.958	O.2	8	PHE109	0.000	
39	  CB	11.728	4.390	0.772	C.3	8	PHE109	0.000	
40	  CG	11.406	2.918	0.850	C.2	8	PHE109	0.000	
41	 CD1	12.423	1.967	0.908	C.2	8	PHE109	0.000	
42	 CD2	10.081	2.484	0.877	C.2	8	PHE109	0.000	
43	 CE1	12.131	0.606	0.986	C.2	8	PHE109	0.000	
44	 CE2	9.776	1.123	0.956	C.2	8	PHE109	0.000	
45	  CZ	10.804	0.182	1.013	C.2	8	PHE109	0.000	
46	   N	12.392	7.151	3.213	N.am	9	GLY110	0.000	
47	  CA	12.540	8.603	3.311	C.3	9	GLY110	0.000	
48	   C	11.436	9.302	4.083	C.2	9	GLY110	0.000	
49	   O	10.682	8.661	4.843	O.2	9	GLY110	0.000	
50	   N	11.347	10.626	3.878	N.am	10	LYS111	0.000	
51	  CA	10.352	11.458	4.554	C.3	10	LYS111	0.000	
52	   C	9.435	12.168	3.556	C.3	10	LYS111	0.000	
53	   N	8.159	12.286	3.916	N.3	11	VAL112	0.000	
54	  CB	5.911	12.132	2.831	C.3	11	VAL112	0.000	
55	 CG1	4.911	12.878	1.954	C.3	11	VAL112	0.000	
56	 CG2	6.292	10.805	2.185	C.3	11	VAL112	0.000	
57	  CG	1.551	20.556	3.392	C.3	12	LEU114	0.000	
58	 CD2	0.710	21.026	4.569	C.3	12	LEU114	0.000	
59	   C	4.558	15.690	-1.670	C.2	13	ALA125	0.000	
60	   O	4.618	15.037	-2.714	O.2	13	ALA125	0.000	
61	  CB	2.387	14.806	-0.776	C.3	13	ALA125	0.000	
62	   N	5.638	16.135	-1.033	N.am	14	VAL126	0.000	
63	   N	8.062	13.768	-1.349	N.3	15	LYS127	0.000	
64	  CA	8.857	12.725	-0.713	C.3	15	LYS127	0.000	
65	  CB	8.400	11.338	-1.178	C.3	15	LYS127	0.000	
66	  CG	9.047	10.171	-0.438	C.3	15	LYS127	0.000	
67	  CD	8.452	8.842	-0.888	C.3	15	LYS127	0.000	
68	  CE	9.227	7.651	-0.343	C.3	15	LYS127	0.000	
69	  NZ	9.075	7.488	1.130	N.4	15	LYS127	0.000	
70	  CG	15.484	7.912	-0.762	C.3	16	LEU129	0.000	
71	 CD1	15.587	7.377	0.669	C.3	16	LEU129	0.000	
72	 CD2	14.889	6.859	-1.687	C.3	16	LEU129	0.000	
73	   O	15.831	0.442	-11.531	O.3	17	VAL149	0.000	
74	  CB	11.996	6.190	-10.465	C.3	18	LEU151	0.000	
75	  CG	10.620	6.857	-10.327	C.3	18	LEU151	0.000	
76	 CD1	9.900	6.422	-9.055	C.3	18	LEU151	0.000	
77	 CD2	10.756	8.369	-10.362	C.3	18	LEU151	0.000	
78	   O	6.975	2.821	-11.849	O.3	19	LYS152	0.000	
79	  CB	9.301	1.765	-13.059	C.3	19	LYS152	0.000	
80	  CA	6.050	5.425	-12.354	C.3	20	ASN153	0.000	
81	  CB	6.050	6.952	-12.460	C.3	20	ASN153	0.000	
82	  CG	4.649	7.546	-12.307	C.3	20	ASN153	0.000	
83	 ND2	4.048	7.368	-11.128	N.3	20	ASN153	0.000	
84	   O	-4.241	6.254	-10.730	O.3	21	HIS156	0.000	
85	   C	-2.097	6.694	-7.665	C.2	22	LEU159	0.000	
86	   O	-2.510	7.428	-8.565	O.2	22	LEU159	0.000	
87	 CD2	-1.020	2.329	-7.297	C.3	22	LEU159	0.000	
88	  CA	-1.012	8.548	-6.498	C.3	23	VAL160	0.000	
89	   C	-0.195	9.032	-7.705	C.2	23	VAL160	0.000	
90	   O	0.680	8.320	-8.205	O.2	23	VAL160	0.000	
91	  CB	-0.311	8.842	-5.131	C.3	23	VAL160	0.000	
92	 CG1	1.143	8.373	-5.121	C.3	23	VAL160	0.000	
93	 CG2	-0.423	10.317	-4.767	C.3	23	VAL160	0.000	
94	   N	-0.513	10.233	-8.182	N.am	24	GLY161	0.000	
95	 CD2	7.236	9.889	-10.578	C.3	25	LEU162	0.000	
96	   O	7.588	13.816	-4.328	O.3	26	PHE174	0.000	
97	 CE2	12.147	9.781	-7.059	C.3	26	PHE174	0.000	
98	  CZ	12.915	9.422	-5.956	C.3	26	PHE174	0.000	
99	  CB	3.312	12.645	-4.655	C.3	27	LEU176	0.000	
100	  CG	4.598	11.820	-4.515	C.3	27	LEU176	0.000	
101	 CD1	4.509	10.890	-3.311	C.3	27	LEU176	0.000	
102	 CD2	4.912	11.033	-5.785	C.3	27	LEU176	0.000	
103	   O	-0.265	13.723	-3.167	O.3	28	ASP177	0.000	
104	  CB	-1.596	13.805	-5.933	C.3	28	ASP177	0.000	
105	 OD2	-2.043	13.015	-8.126	 O	28	ASP177	0.000	
106	  CA	-1.390	15.897	-1.917	C.3	29	TYR178	0.000	
107	   C	-2.796	15.351	-1.708	C.3	29	TYR178	0.000	
108	  CB	-1.265	17.322	-1.369	C.3	29	TYR178	0.000	
109	  CG	-1.784	17.457	0.047	C.2	29	TYR178	0.000	
110	 CD1	-1.144	16.816	1.110	C.2	29	TYR178	0.000	
111	 CD2	-2.923	18.211	0.324	C.2	29	TYR178	0.000	
112	 CE1	-1.621	16.928	2.413	C.2	29	TYR178	0.000	
113	 CE2	-3.407	18.334	1.624	C.2	29	TYR178	0.000	
114	  CZ	-2.753	17.688	2.663	C.2	29	TYR178	0.000	
115	  OH	-3.228	17.804	3.952	O.3	29	TYR178	0.000	
116	   N	-2.864	14.118	-1.213	N.3	30	ILE179	0.000	
117	  CA	-4.133	13.447	-0.962	C.3	30	ILE179	0.000	
118	   C	-4.625	13.826	0.435	C.2	30	ILE179	0.000	
119	   O	-4.043	13.415	1.439	O.2	30	ILE179	0.000	
120	  CB	-3.995	11.908	-1.119	C.3	30	ILE179	0.000	
121	 CG1	-3.376	11.543	-2.478	C.3	30	ILE179	0.000	
122	 CD1	-4.164	12.010	-3.708	C.3	30	ILE179	0.000	
123	  CA	-6.126	15.263	1.729	C.3	31	ASN180	0.000	
124	   C	-7.280	14.603	2.479	C.2	31	ASN180	0.000	
125	   O	-7.565	14.970	3.623	O.2	31	ASN180	0.000	
126	  CB	-6.449	16.742	1.474	C.3	31	ASN180	0.000	
127	   N	-7.477	11.960	3.970	N.3	32	GLY182	0.000	
128	  CA	-7.025	11.259	5.168	C.3	32	GLY182	0.000	
129	   N	-6.076	9.133	5.803	N.3	33	GLU183	0.000	
130	  CB	-4.872	7.254	6.840	C.3	33	GLU183	0.000	
131	  CG	-3.487	7.872	6.740	C.3	33	GLU183	0.000	
132	  CD	-2.585	7.494	7.900	C.2	33	GLU183	0.000	
133	 OE1	-2.525	6.298	8.258	O.co2	33	GLU183	0.000	
134	 OE2	-1.928	8.400	8.451	O.co2	33	GLU183	0.000	
135	  CB	-7.657	8.020	9.953	C.3	34	TYR186	0.000	
136	  CG	-8.426	9.203	10.510	C.2	34	TYR186	0.000	
137	 CD1	-8.307	9.572	11.852	C.2	34	TYR186	0.000	
138	 CD2	-9.265	9.961	9.690	C.2	34	TYR186	0.000	
139	 CE1	-9.008	10.661	12.365	C.2	34	TYR186	0.000	
140	 CE2	-9.971	11.051	10.193	C.2	34	TYR186	0.000	
141	  CZ	-9.837	11.396	11.529	C.2	34	TYR186	0.000	
142	   C	5.022	-6.736	-13.228	C.2	35	ASN217	0.000	
143	   O	6.211	-6.877	-12.929	O.2	35	ASN217	0.000	
144	   N	4.183	-5.976	-12.525	N.am	36	ILE218	0.000	
145	  CA	4.603	-5.227	-11.340	C.3	36	ILE218	0.000	
146	   C	3.864	-5.729	-10.101	C.2	36	ILE218	0.000	
147	   O	2.636	-5.835	-10.098	O.2	36	ILE218	0.000	
148	  CB	4.373	-3.702	-11.513	C.3	36	ILE218	0.000	
149	 CG1	5.126	-3.185	-12.740	C.3	36	ILE218	0.000	
150	 CG2	4.803	-2.936	-10.260	C.3	36	ILE218	0.000	
151	   N	4.628	-6.043	-9.058	N.am	37	VAL219	0.000	
152	  CA	4.078	-6.518	-7.791	C.3	37	VAL219	0.000	
153	   C	4.200	-5.415	-6.742	C.2	37	VAL219	0.000	
154	   O	5.263	-4.808	-6.593	O.2	37	VAL219	0.000	
155	  CB	4.797	-7.808	-7.314	C.3	37	VAL219	0.000	
156	 CG2	4.660	-8.913	-8.356	C.3	37	VAL219	0.000	
157	  CA	3.056	-4.120	-4.995	C.3	38	TYR220	0.000	
158	   O	4.432	-3.599	-3.100	O.3	38	TYR220	0.000	
159	  CG	1.363	-2.482	-3.978	C.2	38	TYR220	0.000	
160	 CD1	0.746	-1.500	-4.750	C.2	38	TYR220	0.000	
161	 CE1	0.504	-0.228	-4.239	C.2	38	TYR220	0.000	
162	  CZ	0.879	0.073	-2.941	C.2	38	TYR220	0.000	
163	  OH	0.643	1.333	-2.439	O.3	38	TYR220	0.000	
164	  CG	7.072	-6.225	-4.055	C.3	39	ARG221	0.000	
165	  CD	8.279	-5.354	-4.369	C.3	39	ARG221	0.000	
166	  NE	9.282	-5.392	-3.300	N.pl3	39	ARG221	0.000	
167	  CZ	10.329	-6.215	-3.271	C.2	39	ARG221	0.000	
168	 NH1	10.536	-7.085	-4.258	N.pl3	39	ARG221	0.000	
169	  CB	5.367	-4.204	1.523	C.3	40	ASP222	0.000	
170	  CG	6.261	-3.210	0.778	C.3	40	ASP222	0.000	
171	 OD2	7.457	-3.118	1.130	 O	40	ASP222	0.000	
172	  CD	3.695	-1.033	5.636	C.3	41	LYS224	0.000	
173	  CE	5.033	-1.635	5.243	C.3	41	LYS224	0.000	
174	  NZ	5.449	-1.227	3.869	N.4	41	LYS224	0.000	
175	   N	-1.015	2.275	5.982	N.3	42	GLU226	0.000	
176	  CA	-0.393	3.592	5.823	C.3	42	GLU226	0.000	
177	   C	-0.170	3.946	4.349	C.2	42	GLU226	0.000	
178	   O	0.126	5.097	4.018	O.2	42	GLU226	0.000	
179	  CB	0.928	3.671	6.600	C.3	42	GLU226	0.000	
180	  CG	2.062	2.817	6.026	C.3	42	GLU226	0.000	
181	  CD	3.365	2.937	6.808	C.2	42	GLU226	0.000	
182	 OE1	4.394	2.426	6.319	O.co2	42	GLU226	0.000	
183	 OE2	3.365	3.536	7.906	O.co2	42	GLU226	0.000	
184	   N	-0.303	2.947	3.478	N.am	43	ASN227	0.000	
185	  CA	-0.203	3.150	2.035	C.3	43	ASN227	0.000	
186	   C	-1.566	3.372	1.387	C.3	43	ASN227	0.000	
187	  CG	1.940	1.793	1.795	C.2	43	ASN227	0.000	
188	 ND2	2.572	2.882	2.235	N.pl3	43	ASN227	0.000	
189	 OD1	2.487	0.692	1.724	O.2	43	ASN227	0.000	
190	  CG	-3.118	8.020	1.642	C.3	44	LEU229	0.000	
191	 CD1	-2.383	9.202	1.038	C.3	44	LEU229	0.000	
192	 CD2	-2.866	7.948	3.138	C.3	44	LEU229	0.000	
193	  CA	0.904	5.915	-2.174	C.3	45	THR239	0.000	
194	   C	2.119	5.463	-2.986	C.2	45	THR239	0.000	
195	   O	3.007	6.270	-3.270	O.2	45	THR239	0.000	
196	  CB	1.346	6.190	-0.721	C.3	45	THR239	0.000	
197	 CG2	0.215	6.816	0.080	C.3	45	THR239	0.000	
198	 OG1	1.750	4.964	-0.098	O.3	45	THR239	0.000	
199	   N	2.157	4.180	-3.344	N.am	46	ASP240	0.000	
200	  CA	3.246	3.629	-4.154	C.3	46	ASP240	0.000	
201	   C	3.236	4.261	-5.539	C.2	46	ASP240	0.000	
202	   O	2.206	4.276	-6.216	O.2	46	ASP240	0.000	
203	  CB	3.116	2.106	-4.260	C.3	46	ASP240	0.000	
204	  CG	4.360	1.440	-4.831	C.2	46	ASP240	0.000	
205	 OD1	4.686	1.673	-6.017	O.co2	46	ASP240	0.000	
206	 OD2	4.998	0.656	-4.095	O.co2	46	ASP240	0.000	
207	   N	4.387	4.787	-5.951	N.am	47	PHE241	0.000	
208	  CA	4.509	5.444	-7.251	C.3	47	PHE241	0.000	
209	   C	5.592	4.851	-8.158	C.2	47	PHE241	0.000	
210	   O	5.727	5.264	-9.308	O.2	47	PHE241	0.000	
211	  CB	4.671	6.965	-7.097	C.3	47	PHE241	0.000	
212	  CG	5.824	7.376	-6.223	C.2	47	PHE241	0.000	
213	 CD1	7.081	7.616	-6.773	C.2	47	PHE241	0.000	
214	 CD2	5.650	7.546	-4.852	C.2	47	PHE241	0.000	
215	 CE1	8.150	8.005	-5.969	C.2	47	PHE241	0.000	
216	 CE2	6.711	7.934	-4.041	C.2	47	PHE241	0.000	
217	  CZ	7.963	8.165	-4.602	C.2	47	PHE241	0.000	
218	   N	6.359	3.893	-7.639	N.am	48	GLY242	0.000	
219	  CA	7.271	3.114	-8.477	C.3	48	GLY242	0.000	
220	   C	8.739	3.047	-8.093	C.2	48	GLY242	0.000	
221	   O	9.569	2.640	-8.908	O.2	48	GLY242	0.000	
222	   N	9.069	3.437	-6.863	N.am	49	LEU243	0.000	
223	  CA	10.444	3.331	-6.370	C.3	49	LEU243	0.000	
224	   C	10.856	1.873	-6.189	C.2	49	LEU243	0.000	
225	   O	10.182	1.113	-5.488	O.2	49	LEU243	0.000	
226	  CB	10.616	4.088	-5.048	C.3	49	LEU243	0.000	
227	  CG	11.005	5.568	-5.075	C.3	49	LEU243	0.000	
228	 CD1	10.882	6.162	-3.682	C.3	49	LEU243	0.000	
229	 CD2	12.419	5.763	-5.610	C.3	49	LEU243	0.000	
230	   N	11.958	1.490	-6.833	N.am	50	CYS244	0.000	
231	  CA	12.515	0.146	-6.700	C.3	50	CYS244	0.000	
232	   C	12.997	-0.069	-5.268	C.2	50	CYS244	0.000	
233	   O	14.099	0.353	-4.894	O.2	50	CYS244	0.000	
234	  CB	13.657	-0.066	-7.699	C.3	50	CYS244	0.000	
235	  SG	14.244	-1.767	-7.830	S.3	50	CYS244	0.000	
236	   N	12.150	-0.722	-4.475	N.am	51	LYS245	0.000	
237	  CA	12.353	-0.876	-3.031	C.3	51	LYS245	0.000	
238	  CB	11.057	-1.344	-2.364	C.3	51	LYS245	0.000	
239	  CG	9.932	-0.313	-2.413	C.3	51	LYS245	0.000	
240	  CD	8.587	-0.920	-2.053	C.3	51	LYS245	0.000	
241	  CE	7.954	-1.610	-3.252	C.3	51	LYS245	0.000	
242	  NZ	6.670	-2.258	-2.890	N.4	51	LYS245	0.000	
243	  CD	12.943	-4.549	-5.993	C.2	52	GLU246	0.000	
244	 OE1	12.097	-4.363	-5.089	O.2	52	GLU246	0.000	
245	 OE2	12.652	-4.488	-7.208	O.2	52	GLU246	0.000	
246	 CG1	15.466	2.579	-1.871	C.3	53	ILE248	0.000	
247	 CG2	15.863	3.034	0.580	C.3	53	ILE248	0.000	
248	 CD1	14.007	2.951	-2.097	C.3	53	ILE248	0.000	
249	  CA	16.675	0.902	5.680	C.3	54	HIS250	0.000	
250	  CB	15.280	1.224	5.136	C.3	54	HIS250	0.000	
251	  CG	14.580	0.041	4.543	C.2	54	HIS250	0.000	
252	 CD2	13.595	-0.750	5.033	C.2	54	HIS250	0.000	
253	 ND1	14.884	-0.455	3.293	N.2	54	HIS250	0.000	
254	 CE1	14.114	-1.497	3.035	C.2	54	HIS250	0.000	
255	 NE2	13.322	-1.697	4.075	N.pl3	54	HIS250	0.000	
256	   O	13.733	-0.470	9.328	O.3	55	ASN251	0.000	
257	  CA	4.128	-1.255	12.719	C.3	56	THR260	0.000	
258	   C	3.119	-2.111	11.955	C.2	56	THR260	0.000	
259	   O	3.455	-3.216	11.523	O.2	56	THR260	0.000	
260	  CB	5.203	-0.700	11.749	C.3	56	THR260	0.000	
261	 CG2	4.596	0.295	10.758	C.3	56	THR260	0.000	
262	 OG1	6.234	-0.042	12.497	O.3	56	THR260	0.000	
@<TRIPOS>BOND
1 1 2 1
2 2 3 1
3 2 4 1
4 5 6 1
5 6 7 1
6 7 8 1
7 9 10 1
8 9 12 1
9 10 11 2
10 10 16 1
11 12 13 1
12 12 14 1
13 13 15 1
14 16 17 1
15 17 18 1
16 18 19 2
17 18 20 1
18 20 21 1
19 21 22 1
20 21 24 1
21 22 23 2
22 22 25 1
23 25 26 1
24 26 27 1
25 27 28 2
26 27 29 1
27 29 30 1
28 30 31 1
29 30 33 1
30 31 32 2
31 31 35 1
32 33 34 1
33 35 36 1
34 36 37 1
35 36 39 1
36 37 38 2
37 37 46 1
38 39 40 1
39 40 41 2
40 40 42 1
41 41 43 1
42 42 44 2
43 43 45 2
44 44 45 1
45 46 47 1
46 47 48 1
47 48 49 2
48 48 50 1
49 50 51 1
50 51 52 1
51 52 53 1
52 54 55 1
53 54 56 1
54 57 58 1
55 59 60 2
56 59 62 1
57 63 64 1
58 64 65 1
59 65 66 1
60 66 67 1
61 67 68 1
62 68 69 1
63 70 71 1
64 70 72 1
65 74 75 1
66 75 76 1
67 75 77 1
68 80 81 1
69 81 82 1
70 82 83 1
71 85 86 2
72 88 89 1
73 88 91 1
74 89 90 2
75 89 94 1
76 91 92 1
77 91 93 1
78 97 98 1
79 99 100 1
80 100 101 1
81 100 102 1
82 106 107 1
83 106 108 1
84 107 116 1
85 108 109 1
86 109 110 2
87 109 111 1
88 110 112 1
89 111 113 2
90 112 114 2
91 113 114 1
92 114 115 1
93 116 117 1
94 117 118 1
95 117 120 1
96 118 119 2
97 120 121 1
98 121 122 1
99 123 124 1
100 123 126 1
101 124 125 2
102 127 128 1
103 130 131 1
104 131 132 1
105 132 133 2
106 132 134 1
107 135 136 1
108 136 137 2
109 136 138 1
110 137 139 1
111 138 140 2
112 139 141 2
113 140 141 1
114 142 143 2
115 142 144 1
116 144 145 1
117 145 146 1
118 145 148 1
119 146 147 2
120 146 151 1
121 148 149 1
122 148 150 1
123 151 152 1
124 152 153 1
125 152 155 1
126 153 154 2
127 155 156 1
128 159 160 2
129 160 161 1
130 161 162 2
131 162 163 1
132 164 165 1
133 165 166 1
134 166 167 1
135 167 168 2
136 169 170 1
137 170 171 1
138 172 173 1
139 173 174 1
140 175 176 1
141 176 177 1
142 176 179 1
143 177 178 2
144 177 184 1
145 179 180 1
146 180 181 1
147 181 182 2
148 181 183 1
149 184 185 1
150 185 186 1
151 187 188 1
152 187 189 2
153 190 191 1
154 190 192 1
155 193 194 1
156 193 196 1
157 194 195 2
158 194 199 1
159 196 197 1
160 196 198 1
161 199 200 1
162 200 201 1
163 200 203 1
164 201 202 2
165 201 207 1
166 203 204 1
167 204 205 2
168 204 206 1
169 207 208 1
170 208 209 1
171 208 211 1
172 209 210 2
173 209 218 1
174 211 212 1
175 212 213 2
176 212 214 1
177 213 215 1
178 214 216 2
179 215 217 2
180 216 217 1
181 218 219 1
182 219 220 1
183 220 221 2
184 220 222 1
185 222 223 1
186 223 224 1
187 223 226 1
188 224 225 2
189 224 230 1
190 226 227 1
191 227 228 1
192 227 229 1
193 230 231 1
194 231 232 1
195 231 234 1
196 232 233 2
197 232 236 1
198 234 235 1
199 236 237 1
200 237 238 1
201 238 239 1
202 239 240 1
203 240 241 1
204 241 242 1
205 243 244 2
206 243 245 1
207 246 248 1
208 249 250 1
209 250 251 1
210 251 252 2
211 251 253 1
212 252 255 1
213 253 254 2
214 254 255 1
215 257 258 1
216 257 260 1
217 258 259 2
218 260 261 1
219 260 262 1
@<TRIPOS>SUBSTRUCTURE
1	LEU101	1	RESIDUE	1 A	LEU
2	LYS102	5	RESIDUE	1 A	LYS
3	ILE104	9	RESIDUE	1 A	ILE
4	GLY105	16	RESIDUE	1 A	GLY
5	LYS106	20	RESIDUE	1 A	LYS
6	GLY107	25	RESIDUE	1 A	GLY
7	SER108	29	RESIDUE	1 A	SER
8	PHE109	35	RESIDUE	1 A	PHE
9	GLY110	46	RESIDUE	1 A	GLY
10	LYS111	50	RESIDUE	1 A	LYS
11	VAL112	53	RESIDUE	1 A	VAL
12	LEU114	57	RESIDUE	1 A	LEU
13	ALA125	59	RESIDUE	1 A	ALA
14	VAL126	62	RESIDUE	1 A	VAL
15	LYS127	63	RESIDUE	1 A	LYS
16	LEU129	70	RESIDUE	1 A	LEU
17	VAL149	73	RESIDUE	1 A	VAL
18	LEU151	74	RESIDUE	1 A	LEU
19	LYS152	78	RESIDUE	1 A	LYS
20	ASN153	80	RESIDUE	1 A	ASN
21	HIS156	84	RESIDUE	1 A	HIS
22	LEU159	85	RESIDUE	1 A	LEU
23	VAL160	88	RESIDUE	1 A	VAL
24	GLY161	94	RESIDUE	1 A	GLY
25	LEU162	95	RESIDUE	1 A	LEU
26	PHE174	96	RESIDUE	1 A	PHE
27	LEU176	99	RESIDUE	1 A	LEU
28	ASP177	103	RESIDUE	1 A	ASP
29	TYR178	106	RESIDUE	1 A	TYR
30	ILE179	116	RESIDUE	1 A	ILE
31	ASN180	123	RESIDUE	1 A	ASN
32	GLY182	127	RESIDUE	1 A	GLY
33	GLU183	129	RESIDUE	1 A	GLU
34	TYR186	135	RESIDUE	1 A	TYR
35	ASN217	142	RESIDUE	1 A	ASN
36	ILE218	144	RESIDUE	1 A	ILE
37	VAL219	151	RESIDUE	1 A	VAL
38	TYR220	157	RESIDUE	1 A	TYR
39	ARG221	164	RESIDUE	1 A	ARG
40	ASP222	169	RESIDUE	1 A	ASP
41	LYS224	172	RESIDUE	1 A	LYS
42	GLU226	175	RESIDUE	1 A	GLU
43	ASN227	184	RESIDUE	1 A	ASN
44	LEU229	190	RESIDUE	1 A	LEU
45	THR239	193	RESIDUE	1 A	THR
46	ASP240	199	RESIDUE	1 A	ASP
47	PHE241	207	RESIDUE	1 A	PHE
48	GLY242	218	RESIDUE	1 A	GLY
49	LEU243	222	RESIDUE	1 A	LEU
50	CYS244	230	RESIDUE	1 A	CYS
51	LYS245	236	RESIDUE	1 A	LYS
52	GLU246	243	RESIDUE	1 A	GLU
53	ILE248	246	RESIDUE	1 A	ILE
54	HIS250	249	RESIDUE	1 A	HIS
55	ASN251	256	RESIDUE	1 A	ASN
56	THR260	257	RESIDUE	1 A	THR
