# created with PyMOL 2.5.4
@<TRIPOS>MOLECULE
3QQU_C_aligned_pocket
258 217 57              
SMALL
USER_CHARGES
@<TRIPOS>ATOM
1	   N	3.135	24.331	2.771	N.3	1	SER999	0.000	
2	  CA	2.560	24.743	4.055	C.3	1	SER999	0.000	
3	   C	3.058	23.912	5.238	C.2	1	SER999	0.000	
4	   O	4.250	23.649	5.363	O.2	1	SER999	0.000	
5	  CB	1.044	24.631	3.983	C.3	1	SER999	0.000	
6	  OG	0.607	24.929	2.671	O.3	1	SER999	0.000	
7	   N	2.136	23.496	6.099	N.am	2	ARG1000	0.000	
8	  CA	2.474	22.706	7.280	C.3	2	ARG1000	0.000	
9	   C	3.212	21.404	6.961	C.2	2	ARG1000	0.000	
10	   O	3.287	20.992	5.799	O.2	2	ARG1000	0.000	
11	  CB	1.208	22.394	8.057	C.3	2	ARG1000	0.000	
12	   N	3.755	20.766	8.003	N.am	3	GLU1001	0.000	
13	   O	2.373	18.540	8.562	O.3	3	GLU1001	0.000	
14	   C	3.721	15.086	8.722	C.2	4	LEU1002	0.000	
15	   O	3.085	14.504	9.607	O.2	4	LEU1002	0.000	
16	  CB	2.889	15.250	6.363	C.3	4	LEU1002	0.000	
17	  CG	1.847	15.767	5.371	C.3	4	LEU1002	0.000	
18	 CD1	1.720	14.816	4.202	C.3	4	LEU1002	0.000	
19	 CD2	0.517	15.901	6.066	C.3	4	LEU1002	0.000	
20	   O	8.889	10.963	8.578	O.3	5	GLN1004	0.000	
21	  CA	10.161	10.901	6.162	C.3	6	GLY1005	0.000	
22	   C	11.563	10.340	6.202	C.2	6	GLY1005	0.000	
23	   O	12.487	10.981	6.688	O.2	6	GLY1005	0.000	
24	   N	11.726	9.139	5.685	N.am	7	SER1006	0.000	
25	  CA	13.022	8.502	5.672	C.3	7	SER1006	0.000	
26	   C	14.177	9.457	5.361	C.2	7	SER1006	0.000	
27	   O	15.240	9.349	5.964	O.2	7	SER1006	0.000	
28	  CB	12.999	7.366	4.670	C.3	7	SER1006	0.000	
29	  OG	12.465	7.844	3.460	O.3	7	SER1006	0.000	
30	   N	13.999	10.393	4.436	N.am	8	PHE1007	0.000	
31	 CE2	16.045	8.039	0.738	C.3	8	PHE1007	0.000	
32	   O	1.931	21.550	2.544	O.3	9	GLU1012	0.000	
33	  NE	-4.883	20.228	-0.018	N.pl3	10	ARG1026	0.000	
34	  CZ	-5.371	20.161	1.212	C.cat	10	ARG1026	0.000	
35	 NH1	-6.680	20.108	1.403	N.pl3	10	ARG1026	0.000	
36	 NH2	-4.549	20.137	2.248	N.pl3	10	ARG1026	0.000	
37	   O	0.891	18.270	-0.605	O.3	11	VAL1027	0.000	
38	   O	4.536	15.945	-2.006	O.3	12	ALA1028	0.000	
39	  CB	2.447	14.722	-0.201	C.3	12	ALA1028	0.000	
40	  CG	7.637	12.948	-0.152	C.3	13	LYS1030	0.000	
41	  CD	7.760	11.445	-0.400	C.3	13	LYS1030	0.000	
42	  CE	8.617	11.141	-1.620	C.3	13	LYS1030	0.000	
43	  NZ	9.064	9.718	-1.684	N.4	13	LYS1030	0.000	
44	   O	14.896	5.809	-7.679	O.3	14	ASN1046	0.000	
45	  CA	13.880	6.203	-5.197	C.3	15	GLU1047	0.000	
46	   C	12.731	6.751	-6.039	C.2	15	GLU1047	0.000	
47	   O	11.938	6.002	-6.610	O.2	15	GLU1047	0.000	
48	  CB	13.675	6.578	-3.737	C.3	15	GLU1047	0.000	
49	  CG	12.384	6.049	-3.137	C.3	15	GLU1047	0.000	
50	  CD	12.291	6.338	-1.648	C.2	15	GLU1047	0.000	
51	 OE1	13.239	5.937	-0.938	O.co2	15	GLU1047	0.000	
52	 OE2	11.297	6.948	-1.175	O.co2	15	GLU1047	0.000	
53	   N	12.667	8.077	-6.132	N.am	16	ALA1048	0.000	
54	  CA	11.627	8.739	-6.905	C.3	16	ALA1048	0.000	
55	   C	11.770	8.475	-8.408	C.2	16	ALA1048	0.000	
56	   O	10.991	8.983	-9.197	O.2	16	ALA1048	0.000	
57	  CB	11.656	10.229	-6.629	C.3	16	ALA1048	0.000	
58	   N	12.751	7.680	-8.812	N.am	17	SER1049	0.000	
59	   C	12.290	6.062	-10.560	C.3	17	SER1049	0.000	
60	   N	11.989	5.277	-9.537	N.3	18	VAL1050	0.000	
61	   C	9.884	4.168	-9.664	C.2	18	VAL1050	0.000	
62	   O	9.102	3.308	-10.061	O.2	18	VAL1050	0.000	
63	  CB	11.911	2.932	-8.795	C.3	18	VAL1050	0.000	
64	 CG1	12.053	1.602	-9.504	C.3	18	VAL1050	0.000	
65	 CG2	13.259	3.376	-8.233	C.3	18	VAL1050	0.000	
66	   N	9.481	5.315	-9.136	N.am	19	MET1051	0.000	
67	  CA	8.070	5.588	-8.970	C.3	19	MET1051	0.000	
68	   C	7.517	6.286	-10.203	C.2	19	MET1051	0.000	
69	   O	6.328	6.211	-10.487	O.2	19	MET1051	0.000	
70	  CB	7.857	6.422	-7.700	C.3	19	MET1051	0.000	
71	  CG	8.500	5.761	-6.487	C.3	19	MET1051	0.000	
72	  SD	8.061	6.359	-4.832	S.3	19	MET1051	0.000	
73	  CE	6.256	6.410	-4.902	C.3	19	MET1051	0.000	
74	   N	8.389	6.950	-10.950	N.am	20	LYS1052	0.000	
75	  CA	7.952	7.641	-12.157	C.3	20	LYS1052	0.000	
76	   C	7.084	6.730	-13.002	C.3	20	LYS1052	0.000	
77	  CB	3.301	3.864	-10.530	C.3	21	PHE1054	0.000	
78	  CG	4.264	2.869	-9.957	C.2	21	PHE1054	0.000	
79	 CD1	4.499	2.831	-8.590	C.2	21	PHE1054	0.000	
80	 CD2	4.976	2.005	-10.784	C.2	21	PHE1054	0.000	
81	 CE1	5.435	1.951	-8.054	C.2	21	PHE1054	0.000	
82	 CE2	5.915	1.120	-10.259	C.2	21	PHE1054	0.000	
83	  CZ	6.146	1.093	-8.894	C.2	21	PHE1054	0.000	
84	   O	-2.945	5.542	-10.466	O.3	22	CYS1056	0.000	
85	  CB	-0.784	3.487	-8.000	C.3	23	VAL1059	0.000	
86	 CG1	0.563	3.256	-7.361	C.3	23	VAL1059	0.000	
87	 CG2	-1.443	2.179	-8.348	C.3	23	VAL1059	0.000	
88	  CA	-0.440	7.507	-5.474	C.3	24	VAL1060	0.000	
89	   C	0.635	7.850	-6.487	C.2	24	VAL1060	0.000	
90	   O	1.687	7.218	-6.505	O.2	24	VAL1060	0.000	
91	  CB	0.119	7.682	-4.080	C.3	24	VAL1060	0.000	
92	 CG1	0.983	8.878	-4.029	C.3	24	VAL1060	0.000	
93	 CG2	-0.994	7.852	-3.112	C.3	24	VAL1060	0.000	
94	   N	0.371	8.841	-7.336	N.am	25	ARG1061	0.000	
95	  CA	1.348	9.226	-8.350	C.3	25	ARG1061	0.000	
96	  CG	-0.233	8.861	-10.366	C.3	25	ARG1061	0.000	
97	  CD	-0.363	9.238	-11.852	C.3	25	ARG1061	0.000	
98	  CB	5.966	10.397	-8.598	C.3	26	LEU1062	0.000	
99	  CB	3.684	12.715	-4.172	C.3	27	MET1076	0.000	
100	  CG	4.890	12.074	-4.793	C.3	27	MET1076	0.000	
101	  SD	5.229	10.523	-4.099	S.3	27	MET1076	0.000	
102	  CE	4.102	9.481	-4.999	C.3	27	MET1076	0.000	
103	  CA	-0.472	13.821	-5.306	C.3	28	GLU1077	0.000	
104	   C	-0.881	13.613	-3.864	C.2	28	GLU1077	0.000	
105	   O	-0.978	12.491	-3.400	O.2	28	GLU1077	0.000	
106	  CB	-1.169	12.811	-6.197	C.3	28	GLU1077	0.000	
107	  CG	-2.599	12.543	-5.860	C.3	28	GLU1077	0.000	
108	  CD	-3.067	11.234	-6.462	C.2	28	GLU1077	0.000	
109	 OE1	-4.271	10.926	-6.348	O.co2	28	GLU1077	0.000	
110	 OE2	-2.221	10.513	-7.042	O.co2	28	GLU1077	0.000	
111	   N	-1.115	14.703	-3.154	N.am	29	LEU1078	0.000	
112	  CA	-1.513	14.621	-1.761	C.3	29	LEU1078	0.000	
113	   C	-2.734	13.740	-1.593	C.2	29	LEU1078	0.000	
114	   O	-3.535	13.586	-2.512	O.2	29	LEU1078	0.000	
115	  CB	-1.834	16.009	-1.208	C.3	29	LEU1078	0.000	
116	  CG	-2.203	16.056	0.278	C.3	29	LEU1078	0.000	
117	 CD1	-0.942	15.947	1.120	C.3	29	LEU1078	0.000	
118	 CD2	-2.932	17.340	0.596	C.3	29	LEU1078	0.000	
119	   N	-2.844	13.164	-0.399	N.am	30	MET1079	0.000	
120	  CA	-3.946	12.297	0.004	C.3	30	MET1079	0.000	
121	   C	-4.409	12.862	1.328	C.2	30	MET1079	0.000	
122	   O	-4.015	12.408	2.393	O.2	30	MET1079	0.000	
123	  CB	-3.457	10.870	0.193	C.3	30	MET1079	0.000	
124	  CG	-3.250	10.117	-1.100	C.3	30	MET1079	0.000	
125	   N	-5.250	13.875	1.246	N.am	31	THR1080	0.000	
126	  CA	-5.743	14.557	2.426	C.3	31	THR1080	0.000	
127	   C	-6.173	13.733	3.618	C.2	31	THR1080	0.000	
128	   O	-6.277	14.271	4.719	O.2	31	THR1080	0.000	
129	  CB	-6.913	15.482	2.070	C.3	31	THR1080	0.000	
130	 CG2	-6.416	16.646	1.238	C.3	31	THR1080	0.000	
131	 OG1	-7.909	14.740	1.351	O.3	31	THR1080	0.000	
132	   N	-6.426	12.444	3.434	N.am	32	ARG1081	0.000	
133	  CA	-6.890	11.663	4.568	C.3	32	ARG1081	0.000	
134	   C	-5.927	10.663	5.172	C.2	32	ARG1081	0.000	
135	   O	-6.289	9.935	6.088	O.2	32	ARG1081	0.000	
136	  CB	-8.204	10.984	4.211	C.3	32	ARG1081	0.000	
137	   N	-4.702	10.632	4.673	N.am	33	GLY1082	0.000	
138	  CA	-3.714	9.726	5.224	C.3	33	GLY1082	0.000	
139	   C	-3.761	8.283	4.769	C.2	33	GLY1082	0.000	
140	   O	-4.305	7.966	3.712	O.2	33	GLY1082	0.000	
141	   N	-3.167	7.410	5.579	N.am	34	ASP1083	0.000	
142	  CA	-3.120	5.981	5.287	C.3	34	ASP1083	0.000	
143	   C	-4.468	5.362	5.618	C.3	34	ASP1083	0.000	
144	  CB	-2.002	5.292	6.091	C.3	34	ASP1083	0.000	
145	  CG	-2.195	5.409	7.600	C.2	34	ASP1083	0.000	
146	 OD1	-1.749	6.403	8.215	O.co2	34	ASP1083	0.000	
147	 OD2	-2.808	4.500	8.185	O.co2	34	ASP1083	0.000	
148	   N	-4.940	4.332	9.484	N.3	35	SER1086	0.000	
149	  CA	-5.234	5.464	10.351	C.3	35	SER1086	0.000	
150	  CB	-4.245	6.598	10.094	C.3	35	SER1086	0.000	
151	  OG	-2.920	6.254	10.468	O.3	35	SER1086	0.000	
152	   O	2.295	-4.893	-11.932	O.3	36	LEU1123	0.000	
153	 CD1	1.167	-2.035	-6.972	C.3	36	LEU1123	0.000	
154	 CD2	2.350	-1.248	-9.033	C.3	36	LEU1123	0.000	
155	  CA	5.196	-7.252	-13.482	C.3	37	LYS1127	0.000	
156	   C	5.829	-6.658	-12.225	C.2	37	LYS1127	0.000	
157	   O	7.052	-6.603	-12.093	O.2	37	LYS1127	0.000	
158	   N	4.987	-6.197	-11.310	N.am	38	PHE1128	0.000	
159	  CA	5.472	-5.633	-10.063	C.3	38	PHE1128	0.000	
160	   C	4.735	-6.286	-8.905	C.2	38	PHE1128	0.000	
161	   O	3.528	-6.532	-8.961	O.2	38	PHE1128	0.000	
162	  CB	5.268	-4.122	-10.042	C.3	38	PHE1128	0.000	
163	  CG	5.587	-3.489	-8.719	C.2	38	PHE1128	0.000	
164	 CD1	4.665	-3.507	-7.670	C.2	38	PHE1128	0.000	
165	 CD2	6.824	-2.902	-8.506	C.2	38	PHE1128	0.000	
166	 CE1	4.987	-2.950	-6.427	C.2	38	PHE1128	0.000	
167	 CE2	7.145	-2.352	-7.279	C.2	38	PHE1128	0.000	
168	  CZ	6.228	-2.377	-6.242	C.2	38	PHE1128	0.000	
169	   N	5.464	-6.573	-7.845	N.am	39	VAL1129	0.000	
170	  CA	4.840	-7.216	-6.718	C.3	39	VAL1129	0.000	
171	   O	6.243	-6.268	-5.021	O.3	39	VAL1129	0.000	
172	 OD2	5.370	-3.530	4.782	 O	40	ASP1132	0.000	
173	   O	0.288	2.608	5.290	O.3	41	ARG1136	0.000	
174	  CG	2.413	-0.079	3.520	C.2	42	ASN1137	0.000	
175	 OD1	2.666	0.845	4.285	O.2	42	ASN1137	0.000	
176	  CB	-2.771	7.063	0.839	C.3	43	MET1139	0.000	
177	  CG	-1.326	6.620	0.967	C.3	43	MET1139	0.000	
178	  SD	-0.101	7.920	0.822	S.3	43	MET1139	0.000	
179	  CE	0.982	7.587	2.192	C.3	43	MET1139	0.000	
180	   O	-0.708	3.712	-4.079	O.3	44	ILE1148	0.000	
181	 CG2	-0.216	0.651	-3.688	C.3	44	ILE1148	0.000	
182	   C	1.317	4.950	-1.427	C.2	45	GLY1149	0.000	
183	   O	1.794	4.063	-0.748	O.2	45	GLY1149	0.000	
184	   N	2.017	5.937	-1.950	N.am	46	ASP1150	0.000	
185	  CA	3.423	6.154	-1.746	C.3	46	ASP1150	0.000	
186	   C	4.287	5.044	-1.154	C.2	46	ASP1150	0.000	
187	   O	4.361	4.863	0.066	O.2	46	ASP1150	0.000	
188	  CB	3.560	7.403	-0.903	C.3	46	ASP1150	0.000	
189	  CG	4.886	8.083	-1.099	C.2	46	ASP1150	0.000	
190	 OD1	5.788	7.470	-1.728	O.co2	46	ASP1150	0.000	
191	 OD2	5.014	9.234	-0.614	O.co2	46	ASP1150	0.000	
192	   N	4.968	4.336	-2.045	N.am	47	PHE1151	0.000	
193	  CA	5.899	3.276	-1.692	C.3	47	PHE1151	0.000	
194	   C	7.072	3.877	-0.945	C.2	47	PHE1151	0.000	
195	   O	8.173	3.333	-0.993	O.2	47	PHE1151	0.000	
196	  CB	6.459	2.644	-2.958	C.3	47	PHE1151	0.000	
197	  CG	5.522	1.688	-3.617	C.2	47	PHE1151	0.000	
198	 CD1	4.434	2.136	-4.350	C.2	47	PHE1151	0.000	
199	 CD2	5.707	0.325	-3.461	C.2	47	PHE1151	0.000	
200	 CE1	3.551	1.234	-4.903	C.2	47	PHE1151	0.000	
201	 CE2	4.828	-0.569	-4.009	C.2	47	PHE1151	0.000	
202	  CZ	3.749	-0.119	-4.732	C.2	47	PHE1151	0.000	
203	   N	6.864	5.012	-0.287	N.am	48	GLY1152	0.000	
204	  CA	7.973	5.644	0.396	C.3	48	GLY1152	0.000	
205	   C	7.643	6.237	1.740	C.2	48	GLY1152	0.000	
206	   O	8.405	7.050	2.274	O.2	48	GLY1152	0.000	
207	   N	6.507	5.838	2.300	N.am	49	MET1153	0.000	
208	  CA	6.121	6.339	3.603	C.3	49	MET1153	0.000	
209	   C	7.109	5.750	4.613	C.2	49	MET1153	0.000	
210	   O	8.221	5.356	4.254	O.2	49	MET1153	0.000	
211	  CB	4.692	5.914	3.920	C.3	49	MET1153	0.000	
212	  CG	3.824	7.013	4.495	C.3	49	MET1153	0.000	
213	  SD	4.252	7.577	6.174	S.3	49	MET1153	0.000	
214	  CE	3.306	6.290	7.182	C.3	49	MET1153	0.000	
215	   N	6.710	5.680	5.872	N.am	50	THR1154	0.000	
216	  CA	7.584	5.150	6.900	C.3	50	THR1154	0.000	
217	   C	6.712	4.300	7.785	C.2	50	THR1154	0.000	
218	   O	5.496	4.368	7.651	O.2	50	THR1154	0.000	
219	  CB	8.198	6.299	7.731	C.3	50	THR1154	0.000	
220	 CG2	7.113	7.127	8.369	C.3	50	THR1154	0.000	
221	 OG1	9.031	5.764	8.768	O.3	50	THR1154	0.000	
222	   N	7.315	3.504	8.674	N.am	51	ARG1155	0.000	
223	  CA	6.542	2.658	9.586	C.3	51	ARG1155	0.000	
224	   C	5.671	3.555	10.426	C.2	51	ARG1155	0.000	
225	   O	4.521	3.236	10.709	O.2	51	ARG1155	0.000	
226	  CB	7.461	1.830	10.476	C.3	51	ARG1155	0.000	
227	  CG	7.680	0.414	9.960	C.3	51	ARG1155	0.000	
228	  CD	8.783	-0.280	10.728	C.3	51	ARG1155	0.000	
229	  NE	10.095	0.056	10.191	N.3	51	ARG1155	0.000	
230	  CZ	11.188	0.198	10.936	C.3	51	ARG1155	0.000	
231	 NH2	12.345	0.521	10.361	N.3	51	ARG1155	0.000	
232	   N	6.232	4.686	10.819	N.am	52	ASP1156	0.000	
233	  CA	5.489	5.666	11.584	C.3	52	ASP1156	0.000	
234	   C	4.997	5.132	12.918	C.3	52	ASP1156	0.000	
235	  CB	4.314	6.163	10.734	C.3	52	ASP1156	0.000	
236	  CG	3.673	7.434	11.279	C.2	52	ASP1156	0.000	
237	 OD1	4.392	8.293	11.854	O.co2	52	ASP1156	0.000	
238	 OD2	2.440	7.583	11.102	O.co2	52	ASP1156	0.000	
239	   N	3.687	5.179	13.099	N.3	53	ILE1157	0.000	
240	  CB	1.725	5.589	14.451	C.3	53	ILE1157	0.000	
241	 CG1	0.499	4.728	14.679	C.3	53	ILE1157	0.000	
242	 CG2	1.418	6.243	13.136	C.3	53	ILE1157	0.000	
243	 CD1	-0.795	5.513	14.593	C.3	53	ILE1157	0.000	
244	   O	4.075	-0.813	12.282	O.3	54	TYR1158	0.000	
245	 CD1	0.477	2.495	10.738	C.3	54	TYR1158	0.000	
246	 CE1	-0.699	3.219	10.731	C.2	54	TYR1158	0.000	
247	  CZ	-1.548	3.133	11.815	C.2	54	TYR1158	0.000	
248	  OH	-2.723	3.824	11.866	O.3	54	TYR1158	0.000	
249	 OE2	9.068	-2.189	13.077	 O	55	GLU1159	0.000	
250	  CB	2.443	-3.650	11.414	C.3	56	ASP1161	0.000	
251	  CB	7.603	-4.690	11.177	C.3	57	TYR1162	0.000	
252	  CG	6.947	-4.010	10.013	C.2	57	TYR1162	0.000	
253	 CD1	6.891	-4.627	8.770	C.2	57	TYR1162	0.000	
254	 CD2	6.281	-2.793	10.180	C.2	57	TYR1162	0.000	
255	 CE1	6.184	-4.058	7.717	C.2	57	TYR1162	0.000	
256	 CE2	5.568	-2.213	9.135	C.2	57	TYR1162	0.000	
257	  CZ	5.520	-2.853	7.906	C.2	57	TYR1162	0.000	
258	  OH	4.797	-2.298	6.876	O.3	57	TYR1162	0.000	
@<TRIPOS>BOND
1 1 2 1
2 2 3 1
3 2 5 1
4 3 4 2
5 3 7 1
6 5 6 1
7 7 8 1
8 8 9 1
9 8 11 1
10 9 10 2
11 9 12 1
12 14 15 2
13 16 17 1
14 17 18 1
15 17 19 1
16 21 22 1
17 22 23 2
18 22 24 1
19 24 25 1
20 25 26 1
21 25 28 1
22 26 27 2
23 26 30 1
24 28 29 1
25 33 34 1
26 34 35 2
27 34 36 1
28 40 41 1
29 41 42 1
30 42 43 1
31 45 46 1
32 45 48 1
33 46 47 2
34 46 53 1
35 48 49 1
36 49 50 1
37 50 51 2
38 50 52 1
39 53 54 1
40 54 55 1
41 54 57 1
42 55 56 2
43 55 58 1
44 59 60 1
45 61 62 2
46 61 66 1
47 63 64 1
48 63 65 1
49 66 67 1
50 67 68 1
51 67 70 1
52 68 69 2
53 68 74 1
54 70 71 1
55 71 72 1
56 72 73 1
57 74 75 1
58 75 76 1
59 77 78 1
60 78 79 2
61 78 80 1
62 79 81 1
63 80 82 2
64 81 83 2
65 82 83 1
66 85 86 1
67 85 87 1
68 88 89 1
69 88 91 1
70 89 90 2
71 89 94 1
72 91 92 1
73 91 93 1
74 94 95 1
75 96 97 1
76 99 100 1
77 100 101 1
78 101 102 1
79 103 104 1
80 103 106 1
81 104 105 2
82 104 111 1
83 106 107 1
84 107 108 1
85 108 109 2
86 108 110 1
87 111 112 1
88 112 113 1
89 112 115 1
90 113 114 2
91 113 119 1
92 115 116 1
93 116 117 1
94 116 118 1
95 119 120 1
96 120 121 1
97 120 123 1
98 121 122 2
99 121 125 1
100 123 124 1
101 125 126 1
102 126 127 1
103 126 129 1
104 127 128 2
105 127 132 1
106 129 130 1
107 129 131 1
108 132 133 1
109 133 134 1
110 133 136 1
111 134 135 2
112 134 137 1
113 137 138 1
114 138 139 1
115 139 140 2
116 139 141 1
117 141 142 1
118 142 143 1
119 142 144 1
120 144 145 1
121 145 146 2
122 145 147 1
123 148 149 1
124 149 150 1
125 150 151 1
126 155 156 1
127 156 157 2
128 156 158 1
129 158 159 1
130 159 160 1
131 159 162 1
132 160 161 2
133 160 169 1
134 162 163 1
135 163 164 2
136 163 165 1
137 164 166 1
138 165 167 2
139 166 168 2
140 167 168 1
141 169 170 1
142 174 175 2
143 176 177 1
144 177 178 1
145 178 179 1
146 182 183 2
147 182 184 1
148 184 185 1
149 185 186 1
150 185 188 1
151 186 187 2
152 186 192 1
153 188 189 1
154 189 190 2
155 189 191 1
156 192 193 1
157 193 194 1
158 193 196 1
159 194 195 2
160 194 203 1
161 196 197 1
162 197 198 2
163 197 199 1
164 198 200 1
165 199 201 2
166 200 202 2
167 201 202 1
168 203 204 1
169 204 205 1
170 205 206 2
171 205 207 1
172 207 208 1
173 208 209 1
174 208 211 1
175 209 210 2
176 209 215 1
177 211 212 1
178 212 213 1
179 213 214 1
180 215 216 1
181 216 217 1
182 216 219 1
183 217 218 2
184 217 222 1
185 219 220 1
186 219 221 1
187 222 223 1
188 223 224 1
189 223 226 1
190 224 225 2
191 224 232 1
192 226 227 1
193 227 228 1
194 228 229 1
195 229 230 1
196 230 231 1
197 232 233 1
198 233 234 1
199 233 235 1
200 234 239 1
201 235 236 1
202 236 237 2
203 236 238 1
204 240 241 1
205 240 242 1
206 241 243 1
207 245 246 1
208 246 247 2
209 247 248 1
210 251 252 1
211 252 253 2
212 252 254 1
213 253 255 1
214 254 256 2
215 255 257 2
216 256 257 1
217 257 258 1
@<TRIPOS>SUBSTRUCTURE
1	SER999	1	RESIDUE	1 C	SER
2	ARG1000	7	RESIDUE	1 C	ARG
3	GLU1001	12	RESIDUE	1 C	GLU
4	LEU1002	14	RESIDUE	1 C	LEU
5	GLN1004	20	RESIDUE	1 C	GLN
6	GLY1005	21	RESIDUE	1 C	GLY
7	SER1006	24	RESIDUE	1 C	SER
8	PHE1007	30	RESIDUE	1 C	PHE
9	GLU1012	32	RESIDUE	1 C	GLU
10	ARG1026	33	RESIDUE	1 C	ARG
11	VAL1027	37	RESIDUE	1 C	VAL
12	ALA1028	38	RESIDUE	1 C	ALA
13	LYS1030	40	RESIDUE	1 C	LYS
14	ASN1046	44	RESIDUE	1 C	ASN
15	GLU1047	45	RESIDUE	1 C	GLU
16	ALA1048	53	RESIDUE	1 C	ALA
17	SER1049	58	RESIDUE	1 C	SER
18	VAL1050	60	RESIDUE	1 C	VAL
19	MET1051	66	RESIDUE	1 C	MET
20	LYS1052	74	RESIDUE	1 C	LYS
21	PHE1054	77	RESIDUE	1 C	PHE
22	CYS1056	84	RESIDUE	1 C	CYS
23	VAL1059	85	RESIDUE	1 C	VAL
24	VAL1060	88	RESIDUE	1 C	VAL
25	ARG1061	94	RESIDUE	1 C	ARG
26	LEU1062	98	RESIDUE	1 C	LEU
27	MET1076	99	RESIDUE	1 C	MET
28	GLU1077	103	RESIDUE	1 C	GLU
29	LEU1078	111	RESIDUE	1 C	LEU
30	MET1079	119	RESIDUE	1 C	MET
31	THR1080	125	RESIDUE	1 C	THR
32	ARG1081	132	RESIDUE	1 C	ARG
33	GLY1082	137	RESIDUE	1 C	GLY
34	ASP1083	141	RESIDUE	1 C	ASP
35	SER1086	148	RESIDUE	1 C	SER
36	LEU1123	152	RESIDUE	1 C	LEU
37	LYS1127	155	RESIDUE	1 C	LYS
38	PHE1128	158	RESIDUE	1 C	PHE
39	VAL1129	169	RESIDUE	1 C	VAL
40	ASP1132	172	RESIDUE	1 C	ASP
41	ARG1136	173	RESIDUE	1 C	ARG
42	ASN1137	174	RESIDUE	1 C	ASN
43	MET1139	176	RESIDUE	1 C	MET
44	ILE1148	180	RESIDUE	1 C	ILE
45	GLY1149	182	RESIDUE	1 C	GLY
46	ASP1150	184	RESIDUE	1 C	ASP
47	PHE1151	192	RESIDUE	1 C	PHE
48	GLY1152	203	RESIDUE	1 C	GLY
49	MET1153	207	RESIDUE	1 C	MET
50	THR1154	215	RESIDUE	1 C	THR
51	ARG1155	222	RESIDUE	1 C	ARG
52	ASP1156	232	RESIDUE	1 C	ASP
53	ILE1157	239	RESIDUE	1 C	ILE
54	TYR1158	244	RESIDUE	1 C	TYR
55	GLU1159	249	RESIDUE	1 C	GLU
56	ASP1161	250	RESIDUE	1 C	ASP
57	TYR1162	251	RESIDUE	1 C	TYR
