# created with PyMOL 2.5.4
@<TRIPOS>MOLECULE
4H1M_A_aligned_pocket
242 207 56              
SMALL
USER_CHARGES
@<TRIPOS>ATOM
1	  CB	3.683	21.825	7.152	C.3	1	ASN428	0.000	
2	  CG	2.980	22.670	6.104	C.2	1	ASN428	0.000	
3	 ND2	1.722	22.344	5.847	N.pl3	1	ASN428	0.000	
4	 OD1	3.530	23.613	5.521	O.2	1	ASN428	0.000	
5	  CD	2.986	18.474	10.986	C.3	2	ARG429	0.000	
6	  NE	2.695	19.912	10.982	N.pl3	2	ARG429	0.000	
7	  CZ	1.964	20.537	10.062	C.cat	2	ARG429	0.000	
8	 NH1	1.437	19.859	9.048	N.pl3	2	ARG429	0.000	
9	 NH2	1.763	21.845	10.145	N.pl3	2	ARG429	0.000	
10	  CA	5.961	12.995	8.208	C.3	3	LEU431	0.000	
11	   C	6.512	11.732	8.876	C.2	3	LEU431	0.000	
12	   O	5.754	10.939	9.448	O.2	3	LEU431	0.000	
13	  CB	5.697	12.691	6.722	C.3	3	LEU431	0.000	
14	  CG	4.270	12.825	6.198	C.3	3	LEU431	0.000	
15	 CD1	4.206	12.386	4.772	C.3	3	LEU431	0.000	
16	 CD2	3.277	11.983	7.010	C.3	3	LEU431	0.000	
17	   N	7.826	11.556	8.770	N.am	4	GLY432	0.000	
18	  CA	8.554	10.431	9.332	C.3	4	GLY432	0.000	
19	   C	9.901	10.252	8.671	C.2	4	GLY432	0.000	
20	   O	10.323	11.075	7.858	O.2	4	GLY432	0.000	
21	   N	10.590	9.181	9.029	N.am	5	GLU433	0.000	
22	  CA	11.889	8.884	8.460	C.3	5	GLU433	0.000	
23	   C	11.727	7.818	7.387	C.2	5	GLU433	0.000	
24	   O	11.189	6.737	7.657	O.2	5	GLU433	0.000	
25	   N	12.153	8.153	6.168	N.am	6	GLY434	0.000	
26	  CA	12.169	7.214	5.056	C.3	6	GLY434	0.000	
27	   C	13.452	6.407	5.130	C.2	6	GLY434	0.000	
28	   O	14.273	6.635	6.027	O.2	6	GLY434	0.000	
29	   N	13.654	5.463	4.197	N.am	7	PHE435	0.000	
30	  CA	14.882	4.658	4.191	C.3	7	PHE435	0.000	
31	  CB	14.776	3.477	3.206	C.3	7	PHE435	0.000	
32	  CG	15.864	2.439	3.341	C.2	7	PHE435	0.000	
33	 CD1	15.834	1.504	4.372	C.2	7	PHE435	0.000	
34	 CE1	16.839	0.535	4.492	C.3	7	PHE435	0.000	
35	   C	14.838	10.718	5.142	C.2	8	GLY437	0.000	
36	   O	13.925	9.900	5.012	O.2	8	GLY437	0.000	
37	  CB	9.108	11.498	4.317	C.3	9	VAL439	0.000	
38	 CG1	7.949	11.883	3.406	C.3	9	VAL439	0.000	
39	 CG2	9.938	10.380	3.686	C.3	9	VAL439	0.000	
40	  CD	1.174	17.587	5.651	C.2	10	GLU441	0.000	
41	 OE1	0.203	17.047	6.229	O.2	10	GLU441	0.000	
42	 OE2	1.104	18.070	4.496	O.2	10	GLU441	0.000	
43	   N	3.006	21.583	1.398	N.3	11	VAL443	0.000	
44	  CB	1.079	23.205	1.334	C.3	11	VAL443	0.000	
45	 CG2	0.107	22.547	2.311	C.3	11	VAL443	0.000	
46	   N	-1.806	19.110	-0.850	N.3	12	ASN453	0.000	
47	  CA	-1.095	18.441	0.239	C.3	12	ASN453	0.000	
48	   C	-0.116	17.465	-0.403	C.2	12	ASN453	0.000	
49	   O	-0.507	16.705	-1.284	O.2	12	ASN453	0.000	
50	  CB	-2.082	17.680	1.127	C.3	12	ASN453	0.000	
51	  CG	-3.104	18.564	1.789	C.2	12	ASN453	0.000	
52	 ND2	-4.174	18.880	1.071	N.pl3	12	ASN453	0.000	
53	 OD1	-2.946	18.969	2.944	O.2	12	ASN453	0.000	
54	   N	1.161	17.518	-0.004	N.am	13	VAL454	0.000	
55	   N	3.751	14.894	0.104	N.3	14	ALA455	0.000	
56	  CA	4.786	14.239	0.895	C.3	14	ALA455	0.000	
57	   C	6.080	14.480	0.113	C.2	14	ALA455	0.000	
58	   O	6.154	14.141	-1.068	O.2	14	ALA455	0.000	
59	  CB	4.506	12.747	1.034	C.3	14	ALA455	0.000	
60	  CB	10.673	11.312	-0.459	C.3	15	LYS457	0.000	
61	  CG	9.343	10.662	-0.096	C.3	15	LYS457	0.000	
62	  CD	9.237	9.225	-0.591	C.3	15	LYS457	0.000	
63	  CE	10.243	8.303	0.058	C.3	15	LYS457	0.000	
64	  NZ	9.854	6.878	-0.114	N.4	15	LYS457	0.000	
65	   O	15.425	4.125	-5.110	O.3	16	LYS470	0.000	
66	  CE	15.544	-0.224	-4.960	C.3	16	LYS470	0.000	
67	   O	14.115	7.353	-5.105	O.3	17	PHE471	0.000	
68	   N	14.794	5.654	-8.109	N.3	18	SER473	0.000	
69	  CA	13.953	4.610	-8.710	C.3	18	SER473	0.000	
70	   C	12.453	4.786	-8.391	C.2	18	SER473	0.000	
71	   O	11.611	4.451	-9.228	O.2	18	SER473	0.000	
72	  CB	14.454	3.208	-8.356	C.3	18	SER473	0.000	
73	  OG	14.255	2.869	-6.993	O.3	18	SER473	0.000	
74	   N	12.123	5.353	-7.206	N.am	19	GLU474	0.000	
75	  CA	10.737	5.623	-6.828	C.3	19	GLU474	0.000	
76	   C	10.155	6.703	-7.728	C.2	19	GLU474	0.000	
77	   O	9.036	6.546	-8.206	O.2	19	GLU474	0.000	
78	  CB	10.620	6.014	-5.359	C.3	19	GLU474	0.000	
79	  CG	9.182	6.266	-4.925	C.3	19	GLU474	0.000	
80	  CD	8.995	6.417	-3.437	C.2	19	GLU474	0.000	
81	 OE1	10.001	6.660	-2.735	O.co2	19	GLU474	0.000	
82	 OE2	7.845	6.284	-2.966	O.co2	19	GLU474	0.000	
83	   N	10.928	7.770	-7.990	N.am	20	ALA475	0.000	
84	  CA	10.531	8.851	-8.890	C.3	20	ALA475	0.000	
85	   C	10.376	8.321	-10.324	C.2	20	ALA475	0.000	
86	   O	9.424	8.687	-11.008	O.2	20	ALA475	0.000	
87	  CB	11.566	9.967	-8.845	C.3	20	ALA475	0.000	
88	   N	11.292	7.427	-10.753	N.am	21	VAL476	0.000	
89	   C	10.094	5.928	-12.324	C.3	21	VAL476	0.000	
90	   N	9.789	5.018	-11.386	N.3	22	ILE477	0.000	
91	   C	7.330	4.932	-11.255	C.2	22	ILE477	0.000	
92	   O	6.465	4.838	-12.121	O.2	22	ILE477	0.000	
93	  CB	8.742	2.996	-10.354	C.3	22	ILE477	0.000	
94	 CG1	9.866	1.999	-10.716	C.3	22	ILE477	0.000	
95	 CG2	7.412	2.273	-10.151	C.3	22	ILE477	0.000	
96	 CD1	10.404	1.159	-9.535	C.3	22	ILE477	0.000	
97	   N	7.191	5.704	-10.152	N.am	23	MET478	0.000	
98	  CA	5.979	6.474	-9.832	C.3	23	MET478	0.000	
99	   C	5.484	7.441	-10.910	C.2	23	MET478	0.000	
100	   O	4.266	7.589	-11.075	O.2	23	MET478	0.000	
101	  CB	6.026	7.107	-8.436	C.3	23	MET478	0.000	
102	  CG	6.095	6.097	-7.273	C.3	23	MET478	0.000	
103	  SD	5.048	4.614	-7.412	S.3	23	MET478	0.000	
104	  CE	3.424	5.332	-7.149	C.3	23	MET478	0.000	
105	   N	6.422	8.043	-11.680	N.am	24	LYS479	0.000	
106	 CD1	3.583	2.678	-10.177	C.3	25	LEU481	0.000	
107	   O	-4.219	5.646	-10.244	O.3	26	HIS483	0.000	
108	 CG2	-0.175	3.703	-7.697	C.3	27	ILE486	0.000	
109	  CA	-0.914	7.152	-5.326	C.3	28	VAL487	0.000	
110	   C	-0.218	7.846	-6.507	C.2	28	VAL487	0.000	
111	   O	0.291	7.167	-7.403	O.2	28	VAL487	0.000	
112	  CB	-0.043	7.110	-4.040	C.3	28	VAL487	0.000	
113	 CG1	-0.872	6.655	-2.834	C.3	28	VAL487	0.000	
114	 CG2	1.185	6.225	-4.228	C.3	28	VAL487	0.000	
115	   N	-0.240	9.182	-6.513	N.am	29	LYS488	0.000	
116	  CA	0.278	10.018	-7.600	C.3	29	LYS488	0.000	
117	   O	1.680	11.354	-6.169	O.3	29	LYS488	0.000	
118	  CB	-0.831	11.018	-8.016	C.3	29	LYS488	0.000	
119	   O	9.001	13.716	-2.835	O.3	30	ILE500	0.000	
120	   C	5.882	14.187	-4.743	C.2	31	ILE501	0.000	
121	   O	5.619	14.038	-5.933	O.2	31	ILE501	0.000	
122	   N	5.192	13.607	-3.754	N.am	32	MET502	0.000	
123	  CA	4.059	12.720	-3.966	C.3	32	MET502	0.000	
124	   C	2.829	13.395	-3.403	C.2	32	MET502	0.000	
125	   O	2.932	14.096	-2.405	O.2	32	MET502	0.000	
126	  CB	4.278	11.392	-3.223	C.3	32	MET502	0.000	
127	  CG	5.592	10.710	-3.538	C.3	32	MET502	0.000	
128	  SD	5.716	10.086	-5.229	S.3	32	MET502	0.000	
129	  CE	4.407	8.858	-5.235	C.3	32	MET502	0.000	
130	   N	1.663	13.157	-4.016	N.am	33	GLU503	0.000	
131	  CA	0.403	13.724	-3.555	C.3	33	GLU503	0.000	
132	   C	-0.101	13.077	-2.260	C.2	33	GLU503	0.000	
133	   O	-0.042	11.854	-2.092	O.2	33	GLU503	0.000	
134	  CB	-0.673	13.594	-4.649	C.3	33	GLU503	0.000	
135	  CD	-2.769	14.608	-5.700	C.3	33	GLU503	0.000	
136	 OE2	-2.981	13.540	-6.320	 O	33	GLU503	0.000	
137	   N	-0.576	13.918	-1.347	N.am	34	LEU504	0.000	
138	  CA	-1.247	13.508	-0.126	C.3	34	LEU504	0.000	
139	   C	-2.658	14.076	-0.267	C.2	34	LEU504	0.000	
140	   O	-2.914	14.912	-1.141	O.2	34	LEU504	0.000	
141	  CB	-0.572	14.046	1.152	C.3	34	LEU504	0.000	
142	  CG	0.649	13.293	1.692	C.3	34	LEU504	0.000	
143	 CD1	1.309	14.082	2.807	C.3	34	LEU504	0.000	
144	 CD2	0.275	11.928	2.245	C.3	34	LEU504	0.000	
145	   N	-3.577	13.583	0.546	N.am	35	TYR505	0.000	
146	  CA	-4.980	13.982	0.538	C.3	35	TYR505	0.000	
147	   C	-5.345	14.343	1.965	C.2	35	TYR505	0.000	
148	   O	-4.708	13.822	2.890	O.2	35	TYR505	0.000	
149	 CE1	-4.938	12.548	-3.738	C.2	35	TYR505	0.000	
150	 CE2	-3.841	10.788	-2.539	C.3	35	TYR505	0.000	
151	  CZ	-4.100	11.448	-3.728	C.2	35	TYR505	0.000	
152	  OH	-3.498	11.020	-4.887	O.3	35	TYR505	0.000	
153	   N	-6.294	15.272	2.200	N.am	36	PRO506	0.000	
154	  CA	-6.562	15.683	3.589	C.3	36	PRO506	0.000	
155	   C	-7.289	14.659	4.461	C.2	36	PRO506	0.000	
156	   O	-7.316	14.816	5.687	O.2	36	PRO506	0.000	
157	  CB	-7.306	17.015	3.437	C.3	36	PRO506	0.000	
158	  CG	-7.290	17.342	1.950	C.3	36	PRO506	0.000	
159	  CD	-7.121	16.039	1.250	C.3	36	PRO506	0.000	
160	   N	-7.807	13.574	3.844	N.am	37	TYR507	0.000	
161	  CA	-8.519	12.506	4.545	C.3	37	TYR507	0.000	
162	   C	-7.569	11.462	5.148	C.2	37	TYR507	0.000	
163	   O	-8.019	10.569	5.859	O.2	37	TYR507	0.000	
164	   N	-6.272	11.602	4.869	N.am	38	GLY508	0.000	
165	  CA	-5.212	10.746	5.386	C.3	38	GLY508	0.000	
166	   C	-5.289	9.275	5.033	C.3	38	GLY508	0.000	
167	   N	-4.687	8.437	5.896	N.3	39	GLU509	0.000	
168	  CA	-4.643	6.981	5.737	C.3	39	GLU509	0.000	
169	  CB	-3.694	6.333	6.766	C.3	39	GLU509	0.000	
170	  CG	-2.214	6.602	6.514	C.3	39	GLU509	0.000	
171	  CD	-1.233	5.988	7.500	C.2	39	GLU509	0.000	
172	 OE1	-1.564	4.952	8.125	O.co2	39	GLU509	0.000	
173	 OE2	-0.111	6.531	7.623	O.co2	39	GLU509	0.000	
174	  CB	-6.356	7.262	10.597	C.3	40	HIS512	0.000	
175	  CG	-4.973	6.729	10.897	C.2	40	HIS512	0.000	
176	 CD2	-4.591	5.579	11.511	C.2	40	HIS512	0.000	
177	 ND1	-3.832	7.444	10.547	N.2	40	HIS512	0.000	
178	 CE1	-2.808	6.702	10.943	C.2	40	HIS512	0.000	
179	 NE2	-3.216	5.568	11.524	N.pl3	40	HIS512	0.000	
180	  CZ	-8.140	10.966	13.497	C.2	41	ARG516	0.000	
181	 NH1	-7.534	9.984	12.840	N.pl3	41	ARG516	0.000	
182	   C	5.042	-8.386	-11.641	C.3	42	ASN544	0.000	
183	   N	4.444	-7.347	-11.055	N.3	43	CYS545	0.000	
184	  CA	5.038	-6.609	-9.956	C.3	43	CYS545	0.000	
185	   C	4.369	-6.961	-8.663	C.2	43	CYS545	0.000	
186	   O	3.147	-7.073	-8.615	O.2	43	CYS545	0.000	
187	  CB	5.012	-5.114	-10.221	C.3	43	CYS545	0.000	
188	  SG	6.159	-4.618	-11.518	S.3	43	CYS545	0.000	
189	   N	5.183	-7.195	-7.631	N.am	44	VAL546	0.000	
190	  CA	4.698	-7.579	-6.310	C.3	44	VAL546	0.000	
191	  CZ	9.199	-5.930	-3.312	C.2	45	ARG548	0.000	
192	 NH1	9.229	-6.736	-4.368	N.pl3	45	ARG548	0.000	
193	 NH2	9.506	-4.650	-3.465	N.pl3	45	ARG548	0.000	
194	   C	-1.005	2.177	5.208	C.2	46	ARG553	0.000	
195	   O	-0.463	3.292	5.230	O.2	46	ARG553	0.000	
196	  CB	-0.648	1.147	7.499	C.3	46	ARG553	0.000	
197	  CG	1.706	0.381	2.932	C.3	47	ASN554	0.000	
198	 ND2	2.393	1.446	3.250	N.3	47	ASN554	0.000	
199	  CG	-2.332	7.884	1.220	C.3	48	LEU556	0.000	
200	 CD1	-1.415	8.788	0.401	C.3	48	LEU556	0.000	
201	 CD2	-2.277	8.263	2.691	C.3	48	LEU556	0.000	
202	  NZ	-5.471	10.202	-6.897	N.4	49	LYS564	0.000	
203	   O	-0.973	3.312	-4.186	O.3	50	LEU565	0.000	
204	  CA	0.801	3.231	-2.072	C.3	51	GLY566	0.000	
205	   C	1.680	2.228	-1.378	C.2	51	GLY566	0.000	
206	   O	1.246	1.109	-1.095	O.2	51	GLY566	0.000	
207	   N	2.914	2.620	-1.110	N.am	52	ASP567	0.000	
208	  CA	3.892	1.808	-0.396	C.3	52	ASP567	0.000	
209	   C	4.787	2.777	0.355	C.2	52	ASP567	0.000	
210	   O	5.675	3.411	-0.228	O.2	52	ASP567	0.000	
211	  CB	4.690	0.881	-1.334	C.3	52	ASP567	0.000	
212	  CG	5.797	0.084	-0.665	C.2	52	ASP567	0.000	
213	 OD1	5.890	0.121	0.580	O.2	52	ASP567	0.000	
214	   N	4.497	2.920	1.648	N.am	53	PHE568	0.000	
215	  CA	5.200	3.823	2.549	C.3	53	PHE568	0.000	
216	   C	6.017	3.038	3.580	C.2	53	PHE568	0.000	
217	   O	6.414	3.592	4.602	O.2	53	PHE568	0.000	
218	  CB	4.205	4.788	3.240	C.3	53	PHE568	0.000	
219	  CG	2.907	5.090	2.518	C.2	53	PHE568	0.000	
220	 CD1	2.908	5.535	1.203	C.2	53	PHE568	0.000	
221	 CD2	1.685	4.977	3.176	C.2	53	PHE568	0.000	
222	 CE1	1.711	5.820	0.543	C.2	53	PHE568	0.000	
223	 CE2	0.488	5.271	2.513	C.2	53	PHE568	0.000	
224	  CZ	0.511	5.666	1.195	C.2	53	PHE568	0.000	
225	   N	6.251	1.759	3.295	N.am	54	GLY569	0.000	
226	  CA	7.000	0.854	4.152	C.3	54	GLY569	0.000	
227	   C	8.431	0.676	3.694	C.2	54	GLY569	0.000	
228	   O	8.783	1.067	2.574	O.2	54	GLY569	0.000	
229	   N	9.272	0.090	4.567	N.am	55	LEU570	0.000	
230	  CA	10.689	-0.121	4.279	C.3	55	LEU570	0.000	
231	   C	10.943	-1.501	3.650	C.2	55	LEU570	0.000	
232	   O	11.294	-2.459	4.346	O.2	55	LEU570	0.000	
233	  CB	11.575	0.157	5.518	C.3	55	LEU570	0.000	
234	  CG	11.634	1.600	6.109	C.3	55	LEU570	0.000	
235	 CD1	11.608	2.683	5.041	C.3	55	LEU570	0.000	
236	 CD2	10.555	1.839	7.151	C.3	55	LEU570	0.000	
237	   N	10.750	-1.574	2.304	N.am	56	SER571	0.000	
238	  CA	10.854	-2.750	1.423	C.3	56	SER571	0.000	
239	   C	9.929	-3.880	1.861	C.2	56	SER571	0.000	
240	   O	8.832	-3.615	2.351	O.2	56	SER571	0.000	
241	  CB	12.297	-3.232	1.283	C.3	56	SER571	0.000	
242	  OG	12.398	-4.262	0.314	O.3	56	SER571	0.000	
@<TRIPOS>BOND
1 1 2 1
2 2 3 1
3 2 4 2
4 5 6 1
5 6 7 1
6 7 8 2
7 7 9 1
8 10 11 1
9 10 13 1
10 11 12 2
11 11 17 1
12 13 14 1
13 14 15 1
14 14 16 1
15 17 18 1
16 18 19 1
17 19 20 2
18 19 21 1
19 21 22 1
20 22 23 1
21 23 24 2
22 23 25 1
23 25 26 1
24 26 27 1
25 27 28 2
26 27 29 1
27 29 30 1
28 30 31 1
29 31 32 1
30 32 33 2
31 33 34 1
32 35 36 2
33 37 38 1
34 37 39 1
35 40 41 2
36 40 42 1
37 44 45 1
38 46 47 1
39 47 48 1
40 47 50 1
41 48 49 2
42 48 54 1
43 50 51 1
44 51 52 1
45 51 53 2
46 55 56 1
47 56 57 1
48 56 59 1
49 57 58 2
50 60 61 1
51 61 62 1
52 62 63 1
53 63 64 1
54 68 69 1
55 69 70 1
56 69 72 1
57 70 71 2
58 70 74 1
59 72 73 1
60 74 75 1
61 75 76 1
62 75 78 1
63 76 77 2
64 76 83 1
65 78 79 1
66 79 80 1
67 80 81 2
68 80 82 1
69 83 84 1
70 84 85 1
71 84 87 1
72 85 86 2
73 85 88 1
74 89 90 1
75 91 92 2
76 91 97 1
77 93 94 1
78 93 95 1
79 94 96 1
80 97 98 1
81 98 99 1
82 98 101 1
83 99 100 2
84 99 105 1
85 101 102 1
86 102 103 1
87 103 104 1
88 109 110 1
89 109 112 1
90 110 111 2
91 110 115 1
92 112 113 1
93 112 114 1
94 115 116 1
95 116 118 1
96 120 121 2
97 120 122 1
98 122 123 1
99 123 124 1
100 123 126 1
101 124 125 2
102 124 130 1
103 126 127 1
104 127 128 1
105 128 129 1
106 130 131 1
107 131 132 1
108 131 134 1
109 132 133 2
110 132 137 1
111 135 136 1
112 137 138 1
113 138 139 1
114 138 141 1
115 139 140 2
116 139 145 1
117 141 142 1
118 142 143 1
119 142 144 1
120 145 146 1
121 146 147 1
122 147 148 2
123 147 153 1
124 149 151 2
125 150 151 1
126 151 152 1
127 153 154 1
128 153 159 1
129 154 155 1
130 154 157 1
131 155 156 2
132 155 160 1
133 157 158 1
134 158 159 1
135 160 161 1
136 161 162 1
137 162 163 2
138 162 164 1
139 164 165 1
140 165 166 1
141 166 167 1
142 167 168 1
143 168 169 1
144 169 170 1
145 170 171 1
146 171 172 2
147 171 173 1
148 174 175 1
149 175 176 2
150 175 177 1
151 176 179 1
152 177 178 2
153 178 179 1
154 180 181 2
155 182 183 1
156 183 184 1
157 184 185 1
158 184 187 1
159 185 186 2
160 185 189 1
161 187 188 1
162 189 190 1
163 191 192 2
164 191 193 1
165 194 195 2
166 197 198 1
167 199 200 1
168 199 201 1
169 204 205 1
170 205 206 2
171 205 207 1
172 207 208 1
173 208 209 1
174 208 211 1
175 209 210 2
176 209 214 1
177 211 212 1
178 212 213 2
179 214 215 1
180 215 216 1
181 215 218 1
182 216 217 2
183 216 225 1
184 218 219 1
185 219 220 2
186 219 221 1
187 220 222 1
188 221 223 2
189 222 224 2
190 223 224 1
191 225 226 1
192 226 227 1
193 227 228 2
194 227 229 1
195 229 230 1
196 230 231 1
197 230 233 1
198 231 232 2
199 231 237 1
200 233 234 1
201 234 235 1
202 234 236 1
203 237 238 1
204 238 239 1
205 238 241 1
206 239 240 2
207 241 242 1
@<TRIPOS>SUBSTRUCTURE
1	ASN428	1	RESIDUE	1 A	ASN
2	ARG429	5	RESIDUE	1 A	ARG
3	LEU431	10	RESIDUE	1 A	LEU
4	GLY432	17	RESIDUE	1 A	GLY
5	GLU433	21	RESIDUE	1 A	GLU
6	GLY434	25	RESIDUE	1 A	GLY
7	PHE435	29	RESIDUE	1 A	PHE
8	GLY437	35	RESIDUE	1 A	GLY
9	VAL439	37	RESIDUE	1 A	VAL
10	GLU441	40	RESIDUE	1 A	GLU
11	VAL443	43	RESIDUE	1 A	VAL
12	ASN453	46	RESIDUE	1 A	ASN
13	VAL454	54	RESIDUE	1 A	VAL
14	ALA455	55	RESIDUE	1 A	ALA
15	LYS457	60	RESIDUE	1 A	LYS
16	LYS470	65	RESIDUE	1 A	LYS
17	PHE471	67	RESIDUE	1 A	PHE
18	SER473	68	RESIDUE	1 A	SER
19	GLU474	74	RESIDUE	1 A	GLU
20	ALA475	83	RESIDUE	1 A	ALA
21	VAL476	88	RESIDUE	1 A	VAL
22	ILE477	90	RESIDUE	1 A	ILE
23	MET478	97	RESIDUE	1 A	MET
24	LYS479	105	RESIDUE	1 A	LYS
25	LEU481	106	RESIDUE	1 A	LEU
26	HIS483	107	RESIDUE	1 A	HIS
27	ILE486	108	RESIDUE	1 A	ILE
28	VAL487	109	RESIDUE	1 A	VAL
29	LYS488	115	RESIDUE	1 A	LYS
30	ILE500	119	RESIDUE	1 A	ILE
31	ILE501	120	RESIDUE	1 A	ILE
32	MET502	122	RESIDUE	1 A	MET
33	GLU503	130	RESIDUE	1 A	GLU
34	LEU504	137	RESIDUE	1 A	LEU
35	TYR505	145	RESIDUE	1 A	TYR
36	PRO506	153	RESIDUE	1 A	PRO
37	TYR507	160	RESIDUE	1 A	TYR
38	GLY508	164	RESIDUE	1 A	GLY
39	GLU509	167	RESIDUE	1 A	GLU
40	HIS512	174	RESIDUE	1 A	HIS
41	ARG516	180	RESIDUE	1 A	ARG
42	ASN544	182	RESIDUE	1 A	ASN
43	CYS545	183	RESIDUE	1 A	CYS
44	VAL546	189	RESIDUE	1 A	VAL
45	ARG548	191	RESIDUE	1 A	ARG
46	ARG553	194	RESIDUE	1 A	ARG
47	ASN554	197	RESIDUE	1 A	ASN
48	LEU556	199	RESIDUE	1 A	LEU
49	LYS564	202	RESIDUE	1 A	LYS
50	LEU565	203	RESIDUE	1 A	LEU
51	GLY566	204	RESIDUE	1 A	GLY
52	ASP567	207	RESIDUE	1 A	ASP
53	PHE568	214	RESIDUE	1 A	PHE
54	GLY569	225	RESIDUE	1 A	GLY
55	LEU570	229	RESIDUE	1 A	LEU
56	SER571	237	RESIDUE	1 A	SER
