# created with PyMOL 2.5.0
@<TRIPOS>MOLECULE
1g50
153 140 19              
SMALL
USER_CHARGES
@<TRIPOS>ATOM
1	   N	112.648	19.739	21.011	N.3	1	MET343	0.000	
2	  CA	112.559	18.733	22.049	C.3	1	MET343	0.000	
3	   C	112.325	19.449	23.370	C.2	1	MET343	0.000	
4	   O	111.447	19.083	24.154	O.2	1	MET343	0.000	
5	  CB	113.850	17.913	22.120	C.3	1	MET343	0.000	
6	  CG	113.744	16.568	21.445	C.3	1	MET343	0.000	
7	  SD	112.179	15.787	21.907	S.3	1	MET343	0.000	
8	  CE	111.254	16.075	20.421	C.3	1	MET343	0.000	
9	   N	108.867	20.976	23.753	N.3	2	LEU346	0.000	
10	  CA	107.968	19.850	23.920	C.3	2	LEU346	0.000	
11	   C	108.028	19.244	25.315	C.2	2	LEU346	0.000	
12	   O	107.024	19.258	26.047	O.2	2	LEU346	0.000	
13	  CB	108.289	18.789	22.874	C.3	2	LEU346	0.000	
14	  CG	108.192	19.287	21.434	C.3	2	LEU346	0.000	
15	 CD1	108.792	18.249	20.532	C.3	2	LEU346	0.000	
16	 CD2	106.747	19.583	21.039	C.3	2	LEU346	0.000	
17	   N	109.200	18.715	25.678	N.am	3	THR347	0.000	
18	  CA	109.394	18.090	26.988	C.3	3	THR347	0.000	
19	   C	109.051	19.079	28.094	C.2	3	THR347	0.000	
20	   O	108.498	18.711	29.134	O.2	3	THR347	0.000	
21	  CB	110.843	17.646	27.201	C.3	3	THR347	0.000	
22	 CG2	111.401	17.050	25.944	C.3	3	THR347	0.000	
23	 OG1	111.634	18.777	27.564	O.3	3	THR347	0.000	
24	   N	106.877	21.611	27.871	N.3	4	LEU349	0.000	
25	  CA	105.425	21.746	27.956	C.3	4	LEU349	0.000	
26	   C	104.899	20.572	28.744	C.2	4	LEU349	0.000	
27	   O	104.165	20.743	29.709	O.2	4	LEU349	0.000	
28	  CB	104.779	21.755	26.568	C.3	4	LEU349	0.000	
29	  CG	103.265	22.022	26.581	C.3	4	LEU349	0.000	
30	 CD1	103.007	23.397	27.173	C.3	4	LEU349	0.000	
31	 CD2	102.679	21.925	25.173	C.3	4	LEU349	0.000	
32	   N	105.309	19.378	28.327	N.am	5	ALA350	0.000	
33	  CA	104.911	18.129	28.971	C.3	5	ALA350	0.000	
34	   C	105.040	18.229	30.467	C.2	5	ALA350	0.000	
35	   O	104.058	18.099	31.205	O.2	5	ALA350	0.000	
36	  CB	105.777	16.998	28.482	C.3	5	ALA350	0.000	
37	   N	102.572	20.545	32.014	N.3	6	GLU353	0.000	
38	  CA	101.185	20.099	31.900	C.3	6	GLU353	0.000	
39	   C	100.904	19.034	32.952	C.2	6	GLU353	0.000	
40	   O	99.854	19.043	33.621	O.2	6	GLU353	0.000	
41	  CB	100.912	19.512	30.514	C.3	6	GLU353	0.000	
42	  CG	100.940	20.521	29.407	C.3	6	GLU353	0.000	
43	  CD	100.499	19.952	28.080	C.2	6	GLU353	0.000	
44	 OE1	99.324	19.530	27.964	O.co2	6	GLU353	0.000	
45	 OE2	101.330	19.933	27.148	O.co2	6	GLU353	0.000	
46	   N	101.322	9.767	29.181	N.3	7	LEU384	0.000	
47	  CA	101.650	10.111	27.818	C.3	7	LEU384	0.000	
48	   C	100.445	10.018	26.915	C.2	7	LEU384	0.000	
49	   O	100.364	10.739	25.933	O.2	7	LEU384	0.000	
50	  CB	102.789	9.243	27.278	C.3	7	LEU384	0.000	
51	  CG	103.287	9.708	25.895	C.3	7	LEU384	0.000	
52	 CD1	103.551	11.228	25.870	C.3	7	LEU384	0.000	
53	 CD2	104.536	8.936	25.531	C.3	7	LEU384	0.000	
54	   N	98.477	13.134	27.587	N.3	8	LEU387	0.000	
55	  CA	99.023	14.301	26.958	C.3	8	LEU387	0.000	
56	   C	98.533	14.249	25.522	C.2	8	LEU387	0.000	
57	   O	97.941	15.200	25.035	O.2	8	LEU387	0.000	
58	  CB	100.552	14.272	27.016	C.3	8	LEU387	0.000	
59	  CG	101.100	14.483	28.424	C.3	8	LEU387	0.000	
60	 CD1	102.611	14.453	28.425	C.3	8	LEU387	0.000	
61	 CD2	100.595	15.810	28.932	C.3	8	LEU387	0.000	
62	   N	98.744	13.114	24.864	N.am	9	MET388	0.000	
63	  CA	98.372	12.952	23.460	C.3	9	MET388	0.000	
64	   C	96.903	13.080	23.132	C.2	9	MET388	0.000	
65	   O	96.564	13.689	22.127	O.2	9	MET388	0.000	
66	  CB	98.890	11.620	22.907	C.3	9	MET388	0.000	
67	  CG	100.373	11.601	22.596	C.3	9	MET388	0.000	
68	  SD	101.106	9.955	22.715	S.3	9	MET388	0.000	
69	  CE	101.878	9.795	21.148	C.3	9	MET388	0.000	
70	   N	96.427	16.681	23.088	N.3	10	LEU391	0.000	
71	  CA	96.974	17.271	21.871	C.3	10	LEU391	0.000	
72	   C	96.100	17.129	20.651	C.2	10	LEU391	0.000	
73	   O	95.837	18.096	19.944	O.2	10	LEU391	0.000	
74	  CB	98.333	16.665	21.541	C.3	10	LEU391	0.000	
75	  CG	98.963	17.385	20.347	C.3	10	LEU391	0.000	
76	 CD1	99.490	18.761	20.798	C.3	10	LEU391	0.000	
77	 CD2	100.076	16.537	19.763	C.3	10	LEU391	0.000	
78	   N	93.138	19.282	20.895	N.3	11	ARG394	0.000	
79	  CA	93.635	20.637	20.689	C.3	11	ARG394	0.000	
80	   C	93.830	20.918	19.208	C.2	11	ARG394	0.000	
81	   O	93.439	21.978	18.711	O.2	11	ARG394	0.000	
82	  CB	94.985	20.845	21.391	C.3	11	ARG394	0.000	
83	  CG	94.938	20.931	22.905	C.3	11	ARG394	0.000	
84	  CD	96.176	21.656	23.438	C.3	11	ARG394	0.000	
85	  NE	97.411	20.916	23.205	N.pl3	11	ARG394	0.000	
86	  CZ	97.926	20.020	24.049	C.cat	11	ARG394	0.000	
87	 NH1	97.317	19.749	25.199	N.pl3	11	ARG394	0.000	
88	 NH2	99.053	19.385	23.741	N.pl3	11	ARG394	0.000	
89	   N	100.066	22.216	19.800	N.3	12	PHE404	0.000	
90	  CA	100.637	21.839	21.079	C.3	12	PHE404	0.000	
91	   C	100.136	22.842	22.104	C.2	12	PHE404	0.000	
92	   O	99.419	22.485	23.038	O.2	12	PHE404	0.000	
93	  CB	102.159	21.823	20.988	C.3	12	PHE404	0.000	
94	  CG	102.703	20.489	20.586	C.2	12	PHE404	0.000	
95	 CD1	102.512	20.007	19.310	C.2	12	PHE404	0.000	
96	 CD2	103.309	19.663	21.514	C.2	12	PHE404	0.000	
97	 CE1	102.914	18.707	18.969	C.2	12	PHE404	0.000	
98	 CE2	103.708	18.370	21.176	C.2	12	PHE404	0.000	
99	  CZ	103.507	17.897	19.907	C.2	12	PHE404	0.000	
100	   N	111.006	11.495	15.228	N.3	13	MET421	0.000	
101	  CA	109.862	12.295	15.615	C.3	13	MET421	0.000	
102	   C	108.738	12.281	14.591	C.2	13	MET421	0.000	
103	   O	107.564	12.169	14.945	O.2	13	MET421	0.000	
104	  CB	110.326	13.729	15.832	C.3	13	MET421	0.000	
105	  CG	109.301	14.626	16.451	C.3	13	MET421	0.000	
106	  SD	109.096	14.238	18.176	S.3	13	MET421	0.000	
107	  CE	107.959	12.879	18.044	C.3	13	MET421	0.000	
108	   N	105.515	9.370	14.627	N.3	14	ILE424	0.000	
109	  CA	104.568	9.701	15.666	C.3	14	ILE424	0.000	
110	   C	103.674	10.879	15.270	C.2	14	ILE424	0.000	
111	   O	102.453	10.755	15.219	O.2	14	ILE424	0.000	
112	  CB	105.326	10.048	16.954	C.3	14	ILE424	0.000	
113	 CG1	106.280	8.904	17.304	C.3	14	ILE424	0.000	
114	 CG2	104.344	10.319	18.083	C.3	14	ILE424	0.000	
115	 CD1	107.270	9.248	18.386	C.3	14	ILE424	0.000	
116	   N	99.704	11.022	15.391	N.3	15	LEU428	0.000	
117	  CA	98.849	11.917	16.144	C.3	15	LEU428	0.000	
118	   C	97.980	12.664	15.153	C.2	15	LEU428	0.000	
119	   O	96.781	12.887	15.400	O.2	15	LEU428	0.000	
120	  CB	99.686	12.895	16.957	C.3	15	LEU428	0.000	
121	  CG	100.332	12.272	18.192	C.3	15	LEU428	0.000	
122	 CD1	101.407	13.173	18.740	C.3	15	LEU428	0.000	
123	 CD2	99.272	12.020	19.230	C.3	15	LEU428	0.000	
124	   N	105.764	6.688	21.379	N.3	16	GLY521	0.000	
125	  CA	106.306	7.957	21.816	C.3	16	GLY521	0.000	
126	   C	107.267	7.712	22.954	C.2	16	GLY521	0.000	
127	   O	108.412	8.123	22.907	O.2	16	GLY521	0.000	
128	   N	110.562	6.720	22.019	N.3	17	HIS524	0.000	
129	  CA	111.263	7.862	21.442	C.3	17	HIS524	0.000	
130	   C	111.866	8.685	22.574	C.2	17	HIS524	0.000	
131	   O	113.085	8.817	22.690	O.2	17	HIS524	0.000	
132	  CB	110.273	8.707	20.631	C.3	17	HIS524	0.000	
133	  CG	110.844	9.980	20.081	C.2	17	HIS524	0.000	
134	 CD2	111.120	10.355	18.809	C.2	17	HIS524	0.000	
135	 ND1	111.169	11.059	20.875	N.2	17	HIS524	0.000	
136	 CE1	111.617	12.043	20.115	C.2	17	HIS524	0.000	
137	 NE2	111.598	11.641	18.858	N.pl3	17	HIS524	0.000	
138	   N	111.012	9.221	23.431	N.am	18	LEU525	0.000	
139	  CA	111.498	10.017	24.534	C.3	18	LEU525	0.000	
140	   C	112.680	9.377	25.264	C.2	18	LEU525	0.000	
141	   O	113.679	10.032	25.533	O.2	18	LEU525	0.000	
142	  CB	110.370	10.288	25.524	C.3	18	LEU525	0.000	
143	  CG	110.679	11.430	26.505	C.3	18	LEU525	0.000	
144	 CD1	111.173	12.661	25.725	C.3	18	LEU525	0.000	
145	 CD2	109.436	11.790	27.315	C.3	18	LEU525	0.000	
146	   N	115.751	9.933	23.304	N.3	19	MET528	0.000	
147	  CA	116.215	11.309	23.250	C.3	19	MET528	0.000	
148	   C	116.916	11.602	24.574	C.2	19	MET528	0.000	
149	   O	117.800	12.463	24.639	O.2	19	MET528	0.000	
150	  CB	115.042	12.260	23.068	C.3	19	MET528	0.000	
151	  CG	114.260	12.033	21.800	C.3	19	MET528	0.000	
152	  SD	114.874	12.935	20.367	S.3	19	MET528	0.000	
153	  CE	115.731	11.641	19.416	C.3	19	MET528	0.000	
@<TRIPOS>BOND
1 1 2 1
2 2 3 1
3 2 5 1
4 3 4 2
5 5 6 1
6 6 7 1
7 7 8 1
8 9 10 1
9 10 11 1
10 10 13 1
11 11 12 2
12 11 17 1
13 13 14 1
14 14 15 1
15 14 16 1
16 17 18 1
17 18 19 1
18 18 21 1
19 19 20 2
20 21 22 1
21 21 23 1
22 24 25 1
23 25 26 1
24 25 28 1
25 26 27 2
26 26 32 1
27 28 29 1
28 29 30 1
29 29 31 1
30 32 33 1
31 33 34 1
32 33 36 1
33 34 35 2
34 37 38 1
35 38 39 1
36 38 41 1
37 39 40 2
38 41 42 1
39 42 43 1
40 43 44 2
41 43 45 1
42 46 47 1
43 47 48 1
44 47 50 1
45 48 49 2
46 50 51 1
47 51 52 1
48 51 53 1
49 54 55 1
50 55 56 1
51 55 58 1
52 56 57 2
53 56 62 1
54 58 59 1
55 59 60 1
56 59 61 1
57 62 63 1
58 63 64 1
59 63 66 1
60 64 65 2
61 66 67 1
62 67 68 1
63 68 69 1
64 70 71 1
65 71 72 1
66 71 74 1
67 72 73 2
68 74 75 1
69 75 76 1
70 75 77 1
71 78 79 1
72 79 80 1
73 79 82 1
74 80 81 2
75 82 83 1
76 83 84 1
77 84 85 1
78 85 86 1
79 86 87 2
80 86 88 1
81 89 90 1
82 90 91 1
83 90 93 1
84 91 92 2
85 93 94 1
86 94 95 2
87 94 96 1
88 95 97 1
89 96 98 2
90 97 99 2
91 98 99 1
92 100 101 1
93 101 102 1
94 101 104 1
95 102 103 2
96 104 105 1
97 105 106 1
98 106 107 1
99 108 109 1
100 109 110 1
101 109 112 1
102 110 111 2
103 112 113 1
104 112 114 1
105 113 115 1
106 116 117 1
107 117 118 1
108 117 120 1
109 118 119 2
110 120 121 1
111 121 122 1
112 121 123 1
113 124 125 1
114 125 126 1
115 126 127 2
116 128 129 1
117 129 130 1
118 129 132 1
119 130 131 2
120 130 138 1
121 132 133 1
122 133 134 2
123 133 135 1
124 134 137 1
125 135 136 2
126 136 137 1
127 138 139 1
128 139 140 1
129 139 142 1
130 140 141 2
131 142 143 1
132 143 144 1
133 143 145 1
134 146 147 1
135 147 148 1
136 147 150 1
137 148 149 2
138 150 151 1
139 151 152 1
140 152 153 1
@<TRIPOS>SUBSTRUCTURE
1	MET343	1	RESIDUE	1 A	MET
2	LEU346	9	RESIDUE	1 A	LEU
3	THR347	17	RESIDUE	1 A	THR
4	LEU349	24	RESIDUE	1 A	LEU
5	ALA350	32	RESIDUE	1 A	ALA
6	GLU353	37	RESIDUE	1 A	GLU
7	LEU384	46	RESIDUE	1 A	LEU
8	LEU387	54	RESIDUE	1 A	LEU
9	MET388	62	RESIDUE	1 A	MET
10	LEU391	70	RESIDUE	1 A	LEU
11	ARG394	78	RESIDUE	1 A	ARG
12	PHE404	89	RESIDUE	1 A	PHE
13	MET421	100	RESIDUE	1 A	MET
14	ILE424	108	RESIDUE	1 A	ILE
15	LEU428	116	RESIDUE	1 A	LEU
16	GLY521	124	RESIDUE	1 A	GLY
17	HIS524	128	RESIDUE	1 A	HIS
18	LEU525	138	RESIDUE	1 A	LEU
19	MET528	146	RESIDUE	1 A	MET
