# created with PyMOL 2.5.0
@<TRIPOS>MOLECULE
1sj0
206 193 25              
SMALL
USER_CHARGES
@<TRIPOS>ATOM
1	   N	35.438	-7.729	31.241	N.3	1	MET343	0.000	
2	  CA	35.489	-7.043	29.952	C.3	1	MET343	0.000	
3	   C	34.922	-7.931	28.848	C.2	1	MET343	0.000	
4	   O	34.239	-7.426	27.956	O.2	1	MET343	0.000	
5	  CB	36.896	-6.593	29.563	C.3	1	MET343	0.000	
6	  CG	36.915	-5.577	28.422	C.3	1	MET343	0.000	
7	  SD	36.261	-3.962	28.906	S.3	1	MET343	0.000	
8	  CE	35.903	-3.252	27.304	C.3	1	MET343	0.000	
9	   N	31.201	-7.706	29.333	N.3	2	LEU346	0.000	
10	  CA	30.746	-6.432	28.801	C.3	2	LEU346	0.000	
11	   C	30.918	-6.361	27.285	C.2	2	LEU346	0.000	
12	   O	30.036	-5.892	26.559	O.2	2	LEU346	0.000	
13	  CB	31.500	-5.260	29.430	C.3	2	LEU346	0.000	
14	  CG	31.372	-5.059	30.943	C.3	2	LEU346	0.000	
15	 CD1	32.256	-3.905	31.393	C.3	2	LEU346	0.000	
16	 CD2	29.922	-4.855	31.346	C.3	2	LEU346	0.000	
17	   N	32.061	-6.841	26.791	N.am	3	THR347	0.000	
18	  CA	32.267	-6.793	25.344	C.3	3	THR347	0.000	
19	   C	31.211	-7.607	24.615	C.2	3	THR347	0.000	
20	   O	30.641	-7.171	23.621	O.2	3	THR347	0.000	
21	  CB	33.651	-7.327	24.941	C.3	3	THR347	0.000	
22	 CG2	33.796	-7.349	23.428	C.3	3	THR347	0.000	
23	 OG1	34.652	-6.436	25.444	O.3	3	THR347	0.000	
24	   N	28.259	-8.524	25.615	N.3	4	LEU349	0.000	
25	  CA	26.977	-7.851	25.747	C.3	4	LEU349	0.000	
26	   C	26.866	-6.741	24.706	C.2	4	LEU349	0.000	
27	   O	25.886	-6.622	23.980	O.2	4	LEU349	0.000	
28	  CB	26.842	-7.271	27.150	C.3	4	LEU349	0.000	
29	  CG	25.473	-6.905	27.705	C.3	4	LEU349	0.000	
30	 CD1	24.323	-7.193	26.752	C.3	4	LEU349	0.000	
31	 CD2	25.246	-7.668	29.010	C.3	4	LEU349	0.000	
32	   N	27.889	-5.903	24.618	N.am	5	ALA350	0.000	
33	  CA	27.862	-4.782	23.679	C.3	5	ALA350	0.000	
34	   C	27.704	-5.235	22.235	C.2	5	ALA350	0.000	
35	   O	26.928	-4.700	21.435	O.2	5	ALA350	0.000	
36	  CB	29.139	-3.969	23.889	C.3	5	ALA350	0.000	
37	   N	28.459	-6.253	21.841	N.am	6	ASP351	0.000	
38	  CA	28.348	-6.840	20.507	C.3	6	ASP351	0.000	
39	   C	26.934	-7.281	20.173	C.2	6	ASP351	0.000	
40	   O	26.426	-7.059	19.077	O.2	6	ASP351	0.000	
41	  CB	29.320	-8.025	20.427	C.3	6	ASP351	0.000	
42	  CG	30.739	-7.515	20.242	C.2	6	ASP351	0.000	
43	 OD1	30.855	-6.303	19.955	O.co2	6	ASP351	0.000	
44	 OD2	31.694	-8.300	20.372	O.co2	6	ASP351	0.000	
45	   N	24.156	-6.166	21.355	N.3	7	GLU353	0.000	
46	  CA	23.237	-5.027	21.305	C.3	7	GLU353	0.000	
47	   C	23.347	-4.341	19.950	C.2	7	GLU353	0.000	
48	   O	22.427	-3.725	19.417	O.2	7	GLU353	0.000	
49	  CB	23.521	-4.050	22.440	C.3	7	GLU353	0.000	
50	  CG	22.904	-4.442	23.776	C.3	7	GLU353	0.000	
51	  CD	23.198	-3.432	24.867	C.2	7	GLU353	0.000	
52	 OE1	22.383	-2.510	25.074	O.co2	7	GLU353	0.000	
53	 OE2	24.257	-3.553	25.510	O.co2	7	GLU353	0.000	
54	   N	24.541	-4.474	19.370	N.am	8	LEU354	0.000	
55	  CA	24.792	-3.770	18.114	C.3	8	LEU354	0.000	
56	   C	23.813	-4.204	17.034	C.2	8	LEU354	0.000	
57	   O	23.287	-3.396	16.275	O.2	8	LEU354	0.000	
58	  CB	26.239	-3.991	17.669	C.3	8	LEU354	0.000	
59	  CG	26.674	-3.141	16.468	C.3	8	LEU354	0.000	
60	 CD1	26.613	-1.660	16.819	C.3	8	LEU354	0.000	
61	 CD2	28.051	-3.573	15.996	C.3	8	LEU354	0.000	
62	   N	27.528	4.726	17.578	N.3	9	TRP383	0.000	
63	  CA	27.146	3.501	18.285	C.3	9	TRP383	0.000	
64	   C	27.520	3.494	19.762	C.2	9	TRP383	0.000	
65	   O	26.723	3.052	20.598	O.2	9	TRP383	0.000	
66	  CB	27.761	2.277	17.584	C.3	9	TRP383	0.000	
67	  CG	29.243	2.198	17.782	C.2	9	TRP383	0.000	
68	 CD1	30.202	2.785	17.015	C.2	9	TRP383	0.000	
69	 CD2	29.949	1.498	18.815	C.2	9	TRP383	0.000	
70	 CE2	31.324	1.700	18.619	C.2	9	TRP383	0.000	
71	 CE3	29.509	0.724	19.892	C.2	9	TRP383	0.000	
72	 NE1	31.457	2.489	17.509	N.pl3	9	TRP383	0.000	
73	 CZ2	32.291	1.153	19.453	C.2	9	TRP383	0.000	
74	 CZ3	30.472	0.183	20.714	C.2	9	TRP383	0.000	
75	 CH2	31.831	0.395	20.499	C.2	9	TRP383	0.000	
76	   N	28.713	3.961	20.146	N.am	10	LEU384	0.000	
77	  CA	29.068	3.917	21.567	C.3	10	LEU384	0.000	
78	   C	28.215	4.896	22.365	C.2	10	LEU384	0.000	
79	   O	27.718	4.558	23.442	O.2	10	LEU384	0.000	
80	  CB	30.566	4.173	21.794	C.3	10	LEU384	0.000	
81	  CG	31.063	3.810	23.202	C.3	10	LEU384	0.000	
82	 CD1	30.393	2.522	23.671	C.3	10	LEU384	0.000	
83	 CD2	32.569	3.664	23.274	C.3	10	LEU384	0.000	
84	   N	24.854	3.170	22.890	N.3	11	LEU387	0.000	
85	  CA	24.944	2.156	23.931	C.3	11	LEU387	0.000	
86	   C	24.931	2.793	25.322	C.2	11	LEU387	0.000	
87	   O	24.233	2.315	26.214	O.2	11	LEU387	0.000	
88	  CB	26.232	1.346	23.842	C.3	11	LEU387	0.000	
89	  CG	26.287	0.241	22.785	C.3	11	LEU387	0.000	
90	 CD1	27.529	-0.623	22.975	C.3	11	LEU387	0.000	
91	 CD2	25.026	-0.599	22.815	C.3	11	LEU387	0.000	
92	   N	25.734	3.843	25.452	N.am	12	MET388	0.000	
93	  CA	25.920	4.522	26.725	C.3	12	MET388	0.000	
94	   C	24.674	5.269	27.161	C.2	12	MET388	0.000	
95	   O	24.394	5.285	28.364	O.2	12	MET388	0.000	
96	  CB	27.091	5.512	26.683	C.3	12	MET388	0.000	
97	  CG	28.436	4.823	26.763	C.3	12	MET388	0.000	
98	  SD	29.793	6.005	26.736	S.3	12	MET388	0.000	
99	  CE	31.151	4.971	27.304	C.3	12	MET388	0.000	
100	   N	22.440	2.598	28.610	N.3	13	LEU391	0.000	
101	  CA	22.904	2.086	29.897	C.3	13	LEU391	0.000	
102	   C	22.549	3.031	31.045	C.2	13	LEU391	0.000	
103	   O	22.113	2.617	32.114	O.2	13	LEU391	0.000	
104	  CB	24.414	1.885	29.869	C.3	13	LEU391	0.000	
105	  CG	25.077	1.630	31.222	C.3	13	LEU391	0.000	
106	 CD1	24.557	0.329	31.818	C.3	13	LEU391	0.000	
107	 CD2	26.593	1.622	31.059	C.3	13	LEU391	0.000	
108	   N	18.762	2.906	31.815	N.3	14	ARG394	0.000	
109	  CA	18.230	1.753	32.555	C.3	14	ARG394	0.000	
110	   C	18.854	1.684	33.941	C.2	14	ARG394	0.000	
111	   O	18.369	1.006	34.852	O.2	14	ARG394	0.000	
112	  CB	18.377	0.476	31.735	C.3	14	ARG394	0.000	
113	  CG	19.737	-0.042	31.368	C.3	14	ARG394	0.000	
114	  CD	19.669	-1.262	30.438	C.3	14	ARG394	0.000	
115	  NE	21.049	-1.674	30.140	N.pl3	14	ARG394	0.000	
116	  CZ	21.659	-1.320	29.008	C.cat	14	ARG394	0.000	
117	 NH1	21.017	-0.589	28.108	N.pl3	14	ARG394	0.000	
118	 NH2	22.903	-1.697	28.762	N.pl3	14	ARG394	0.000	
119	   N	24.073	-2.880	33.367	N.3	15	PHE404	0.000	
120	  CA	24.526	-3.368	32.067	C.3	15	PHE404	0.000	
121	   C	23.503	-4.331	31.476	C.2	15	PHE404	0.000	
122	   O	23.145	-4.214	30.305	O.2	15	PHE404	0.000	
123	  CB	25.897	-4.013	32.221	C.3	15	PHE404	0.000	
124	  CG	26.989	-2.998	32.506	C.2	15	PHE404	0.000	
125	 CD1	27.533	-2.259	31.468	C.2	15	PHE404	0.000	
126	 CD2	27.474	-2.786	33.778	C.2	15	PHE404	0.000	
127	 CE1	28.530	-1.338	31.708	C.2	15	PHE404	0.000	
128	 CE2	28.466	-1.861	34.021	C.2	15	PHE404	0.000	
129	  CZ	29.013	-1.123	32.981	C.2	15	PHE404	0.000	
130	   N	38.968	1.755	34.206	N.3	16	MET421	0.000	
131	  CA	37.561	1.635	33.850	C.3	16	MET421	0.000	
132	   C	36.655	2.408	34.803	C.2	16	MET421	0.000	
133	   O	35.662	2.975	34.350	O.2	16	MET421	0.000	
134	  CB	37.094	0.172	33.803	C.3	16	MET421	0.000	
135	  CG	35.645	0.044	33.328	C.3	16	MET421	0.000	
136	  SD	35.316	-1.481	32.434	S.3	16	MET421	0.000	
137	  CE	34.371	-2.415	33.635	C.3	16	MET421	0.000	
138	   N	35.446	5.721	33.638	N.3	17	ILE424	0.000	
139	  CA	34.288	5.674	32.760	C.3	17	ILE424	0.000	
140	   C	33.012	5.415	33.558	C.2	17	ILE424	0.000	
141	   O	31.984	6.064	33.367	O.2	17	ILE424	0.000	
142	  CB	34.436	4.579	31.686	C.3	17	ILE424	0.000	
143	 CG1	35.824	4.473	31.062	C.3	17	ILE424	0.000	
144	 CG2	33.376	4.767	30.615	C.3	17	ILE424	0.000	
145	 CD1	36.103	5.438	29.938	C.3	17	ILE424	0.000	
146	   N	29.538	7.649	33.679	N.3	18	LEU428	0.000	
147	  CA	28.238	7.030	33.439	C.3	18	LEU428	0.000	
148	   C	27.315	7.168	34.643	C.2	18	LEU428	0.000	
149	   O	26.179	7.653	34.562	O.2	18	LEU428	0.000	
150	  CB	28.452	5.553	33.061	C.3	18	LEU428	0.000	
151	  CG	29.133	5.298	31.716	C.3	18	LEU428	0.000	
152	 CD1	29.616	3.867	31.573	C.3	18	LEU428	0.000	
153	 CD2	28.175	5.637	30.570	C.3	18	LEU428	0.000	
154	   N	36.156	9.217	25.383	N.3	19	LYS520	0.000	
155	  CA	36.963	8.664	26.454	C.3	19	LYS520	0.000	
156	   C	36.899	7.138	26.349	C.2	19	LYS520	0.000	
157	   O	37.923	6.476	26.440	O.2	19	LYS520	0.000	
158	  CB	36.473	9.120	27.821	C.3	19	LYS520	0.000	
159	  CG	36.573	10.601	28.124	C.3	19	LYS520	0.000	
160	  CD	37.867	11.217	27.630	C.3	19	LYS520	0.000	
161	  CE	39.048	10.851	28.516	C.3	19	LYS520	0.000	
162	  NZ	40.148	11.857	28.436	N.4	19	LYS520	0.000	
163	   N	35.686	6.632	26.148	N.am	20	GLY521	0.000	
164	  CA	35.432	5.204	26.092	C.3	20	GLY521	0.000	
165	   C	36.158	4.550	24.938	C.2	20	GLY521	0.000	
166	   O	36.641	3.431	25.076	O.2	20	GLY521	0.000	
167	   N	39.822	4.295	25.849	N.3	21	HIS524	0.000	
168	  CA	40.050	3.171	26.763	C.3	21	HIS524	0.000	
169	   C	39.898	1.862	26.001	C.2	21	HIS524	0.000	
170	   O	40.736	0.961	26.142	O.2	21	HIS524	0.000	
171	  CB	39.128	3.305	27.970	C.3	21	HIS524	0.000	
172	  CG	39.180	2.276	29.049	C.2	21	HIS524	0.000	
173	 CD2	40.030	2.076	30.084	C.2	21	HIS524	0.000	
174	 ND1	38.237	1.274	29.160	N.2	21	HIS524	0.000	
175	 CE1	38.500	0.502	30.195	C.2	21	HIS524	0.000	
176	 NE2	39.590	0.971	30.772	N.pl3	21	HIS524	0.000	
177	   N	38.865	1.717	25.173	N.am	22	LEU525	0.000	
178	  CA	38.777	0.474	24.405	C.3	22	LEU525	0.000	
179	   C	40.009	0.297	23.528	C.2	22	LEU525	0.000	
180	   O	40.572	-0.799	23.478	O.2	22	LEU525	0.000	
181	  CB	37.521	0.393	23.536	C.3	22	LEU525	0.000	
182	  CG	36.195	0.426	24.295	C.3	22	LEU525	0.000	
183	 CD1	35.028	0.107	23.381	C.3	22	LEU525	0.000	
184	 CD2	36.249	-0.551	25.457	C.3	22	LEU525	0.000	
185	   N	38.873	-6.499	23.862	N.3	23	CYS530	0.000	
186	  CA	37.536	-6.302	23.337	C.3	23	CYS530	0.000	
187	   C	37.505	-6.175	21.819	C.2	23	CYS530	0.000	
188	   O	36.428	-6.160	21.206	O.2	23	CYS530	0.000	
189	  CB	36.920	-5.035	23.961	C.3	23	CYS530	0.000	
190	  SG	38.065	-3.631	23.903	S.3	23	CYS530	0.000	
191	   N	35.035	-1.700	11.576	N.3	24	LEU536	0.000	
192	  CA	33.663	-1.587	12.043	C.3	24	LEU536	0.000	
193	   C	32.745	-1.130	10.913	C.2	24	LEU536	0.000	
194	   O	31.552	-1.441	10.889	O.2	24	LEU536	0.000	
195	  CB	33.554	-0.590	13.208	C.3	24	LEU536	0.000	
196	  CG	32.106	-0.406	13.694	C.3	24	LEU536	0.000	
197	 CD1	31.525	-1.755	14.099	C.3	24	LEU536	0.000	
198	 CD2	32.022	0.601	14.823	C.3	24	LEU536	0.000	
199	   N	31.662	-4.116	8.840	N.3	25	LEU539	0.000	
200	  CA	30.726	-4.971	9.577	C.3	25	LEU539	0.000	
201	   C	29.355	-4.319	9.701	C.2	25	LEU539	0.000	
202	   O	28.327	-4.999	9.699	O.2	25	LEU539	0.000	
203	  CB	31.305	-5.303	10.952	C.3	25	LEU539	0.000	
204	  CG	30.328	-5.963	11.924	C.3	25	LEU539	0.000	
205	 CD1	30.333	-7.474	11.767	C.3	25	LEU539	0.000	
206	 CD2	30.660	-5.553	13.354	C.3	25	LEU539	0.000	
@<TRIPOS>BOND
1 1 2 1
2 2 3 1
3 2 5 1
4 3 4 2
5 5 6 1
6 6 7 1
7 7 8 1
8 9 10 1
9 10 11 1
10 10 13 1
11 11 12 2
12 11 17 1
13 13 14 1
14 14 15 1
15 14 16 1
16 17 18 1
17 18 19 1
18 18 21 1
19 19 20 2
20 21 22 1
21 21 23 1
22 24 25 1
23 25 26 1
24 25 28 1
25 26 27 2
26 26 32 1
27 28 29 1
28 29 30 1
29 29 31 1
30 32 33 1
31 33 34 1
32 33 36 1
33 34 35 2
34 34 37 1
35 37 38 1
36 38 39 1
37 38 41 1
38 39 40 2
39 41 42 1
40 42 43 2
41 42 44 1
42 45 46 1
43 46 47 1
44 46 49 1
45 47 48 2
46 47 54 1
47 49 50 1
48 50 51 1
49 51 52 2
50 51 53 1
51 54 55 1
52 55 56 1
53 55 58 1
54 56 57 2
55 58 59 1
56 59 60 1
57 59 61 1
58 62 63 1
59 63 64 1
60 63 66 1
61 64 65 2
62 64 76 1
63 66 67 1
64 67 68 2
65 67 69 1
66 68 72 1
67 69 70 2
68 69 71 1
69 70 73 1
70 71 74 2
71 70 72 1
72 73 75 2
73 74 75 1
74 76 77 1
75 77 78 1
76 77 80 1
77 78 79 2
78 80 81 1
79 81 82 1
80 81 83 1
81 84 85 1
82 85 86 1
83 85 88 1
84 86 87 2
85 86 92 1
86 88 89 1
87 89 90 1
88 89 91 1
89 92 93 1
90 93 94 1
91 93 96 1
92 94 95 2
93 96 97 1
94 97 98 1
95 98 99 1
96 100 101 1
97 101 102 1
98 101 104 1
99 102 103 2
100 104 105 1
101 105 106 1
102 105 107 1
103 108 109 1
104 109 110 1
105 109 112 1
106 110 111 2
107 112 113 1
108 113 114 1
109 114 115 1
110 115 116 1
111 116 117 2
112 116 118 1
113 119 120 1
114 120 121 1
115 120 123 1
116 121 122 2
117 123 124 1
118 124 125 2
119 124 126 1
120 125 127 1
121 126 128 2
122 127 129 2
123 128 129 1
124 130 131 1
125 131 132 1
126 131 134 1
127 132 133 2
128 134 135 1
129 135 136 1
130 136 137 1
131 138 139 1
132 139 140 1
133 139 142 1
134 140 141 2
135 142 143 1
136 142 144 1
137 143 145 1
138 146 147 1
139 147 148 1
140 147 150 1
141 148 149 2
142 150 151 1
143 151 152 1
144 151 153 1
145 154 155 1
146 155 156 1
147 155 158 1
148 156 157 2
149 156 163 1
150 158 159 1
151 159 160 1
152 160 161 1
153 161 162 1
154 163 164 1
155 164 165 1
156 165 166 2
157 167 168 1
158 168 169 1
159 168 171 1
160 169 170 2
161 169 177 1
162 171 172 1
163 172 173 2
164 172 174 1
165 173 176 1
166 174 175 2
167 175 176 1
168 177 178 1
169 178 179 1
170 178 181 1
171 179 180 2
172 181 182 1
173 182 183 1
174 182 184 1
175 185 186 1
176 186 187 1
177 186 189 1
178 187 188 2
179 189 190 1
180 191 192 1
181 192 193 1
182 192 195 1
183 193 194 2
184 195 196 1
185 196 197 1
186 196 198 1
187 199 200 1
188 200 201 1
189 200 203 1
190 201 202 2
191 203 204 1
192 204 205 1
193 204 206 1
@<TRIPOS>SUBSTRUCTURE
1	MET343	1	RESIDUE	1 A	MET
2	LEU346	9	RESIDUE	1 A	LEU
3	THR347	17	RESIDUE	1 A	THR
4	LEU349	24	RESIDUE	1 A	LEU
5	ALA350	32	RESIDUE	1 A	ALA
6	ASP351	37	RESIDUE	1 A	ASP
7	GLU353	45	RESIDUE	1 A	GLU
8	LEU354	54	RESIDUE	1 A	LEU
9	TRP383	62	RESIDUE	1 A	TRP
10	LEU384	76	RESIDUE	1 A	LEU
11	LEU387	84	RESIDUE	1 A	LEU
12	MET388	92	RESIDUE	1 A	MET
13	LEU391	100	RESIDUE	1 A	LEU
14	ARG394	108	RESIDUE	1 A	ARG
15	PHE404	119	RESIDUE	1 A	PHE
16	MET421	130	RESIDUE	1 A	MET
17	ILE424	138	RESIDUE	1 A	ILE
18	LEU428	146	RESIDUE	1 A	LEU
19	LYS520	154	RESIDUE	1 A	LYS
20	GLY521	163	RESIDUE	1 A	GLY
21	HIS524	167	RESIDUE	1 A	HIS
22	LEU525	177	RESIDUE	1 A	LEU
23	CYS530	185	RESIDUE	1 A	CYS
24	LEU536	191	RESIDUE	1 A	LEU
25	LEU539	199	RESIDUE	1 A	LEU
