# created with PyMOL 2.5.0
@<TRIPOS>MOLECULE
1x7r
164 152 20              
SMALL
USER_CHARGES
@<TRIPOS>ATOM
1	   N	11.319	33.205	30.084	N.3	1	MET343	0.000	
2	  CA	12.402	32.266	29.824	C.3	1	MET343	0.000	
3	   C	11.852	30.852	29.619	C.2	1	MET343	0.000	
4	   O	12.377	30.094	28.816	O.2	1	MET343	0.000	
5	  CB	13.396	32.270	30.987	C.3	1	MET343	0.000	
6	  CG	14.277	33.509	31.060	C.3	1	MET343	0.000	
7	  SD	15.167	33.773	29.522	S.3	1	MET343	0.000	
8	  CE	15.971	32.142	29.324	C.3	1	MET343	0.000	
9	   N	10.326	30.518	25.935	N.3	2	LEU346	0.000	
10	  CA	11.348	30.385	24.900	C.3	2	LEU346	0.000	
11	   C	12.148	29.081	24.991	C.2	2	LEU346	0.000	
12	   O	12.368	28.418	23.981	O.2	2	LEU346	0.000	
13	  CB	12.317	31.570	24.951	C.3	2	LEU346	0.000	
14	  CG	11.776	33.001	24.853	C.3	2	LEU346	0.000	
15	 CD1	12.953	33.923	24.536	C.3	2	LEU346	0.000	
16	 CD2	10.718	33.126	23.762	C.3	2	LEU346	0.000	
17	   N	12.595	28.722	26.191	N.am	3	THR347	0.000	
18	  CA	13.371	27.496	26.348	C.3	3	THR347	0.000	
19	   C	12.539	26.242	26.065	C.2	3	THR347	0.000	
20	   O	13.056	25.267	25.529	O.2	3	THR347	0.000	
21	  CB	14.001	27.403	27.756	C.3	3	THR347	0.000	
22	 CG2	14.976	28.556	27.973	C.3	3	THR347	0.000	
23	 OG1	12.974	27.442	28.758	O.3	3	THR347	0.000	
24	   N	10.041	26.048	23.940	N.3	4	LEU349	0.000	
25	  CA	9.895	26.005	22.481	C.3	4	LEU349	0.000	
26	   C	11.187	25.507	21.822	C.2	4	LEU349	0.000	
27	   O	11.153	24.679	20.912	O.2	4	LEU349	0.000	
28	  CB	9.538	27.401	21.949	C.3	4	LEU349	0.000	
29	  CG	9.356	27.564	20.431	C.3	4	LEU349	0.000	
30	 CD1	8.279	26.600	19.921	C.3	4	LEU349	0.000	
31	 CD2	8.964	28.991	20.121	C.3	4	LEU349	0.000	
32	   N	12.328	26.000	22.294	N.am	5	ALA350	0.000	
33	  CA	13.614	25.589	21.746	C.3	5	ALA350	0.000	
34	   C	13.848	24.097	21.961	C.2	5	ALA350	0.000	
35	   O	14.317	23.405	21.061	O.2	5	ALA350	0.000	
36	  CB	14.738	26.390	22.391	C.3	5	ALA350	0.000	
37	   N	11.772	22.228	19.496	N.3	6	GLU353	0.000	
38	  CA	12.293	22.415	18.146	C.3	6	GLU353	0.000	
39	   C	13.567	21.600	17.921	C.2	6	GLU353	0.000	
40	   O	13.824	21.130	16.815	O.2	6	GLU353	0.000	
41	  CB	12.615	23.886	17.889	C.3	6	GLU353	0.000	
42	  CG	11.425	24.739	17.585	C.3	6	GLU353	0.000	
43	  CD	11.839	26.114	17.136	C.2	6	GLU353	0.000	
44	 OE1	11.888	27.032	17.973	O.co2	6	GLU353	0.000	
45	 OE2	12.140	26.268	15.938	O.co2	6	GLU353	0.000	
46	   N	21.823	26.806	18.308	N.3	7	LEU384	0.000	
47	  CA	21.169	28.086	18.571	C.3	7	LEU384	0.000	
48	   C	21.162	28.996	17.345	C.2	7	LEU384	0.000	
49	   O	20.186	29.723	17.107	O.2	7	LEU384	0.000	
50	  CB	21.832	28.793	19.745	C.3	7	LEU384	0.000	
51	  CG	21.110	30.056	20.229	C.3	7	LEU384	0.000	
52	 CD1	19.649	29.751	20.483	C.3	7	LEU384	0.000	
53	 CD2	21.795	30.575	21.510	C.3	7	LEU384	0.000	
54	   N	18.241	27.816	15.249	N.3	8	LEU387	0.000	
55	  CA	16.944	28.228	15.775	C.3	8	LEU387	0.000	
56	   C	16.764	29.722	15.443	C.2	8	LEU387	0.000	
57	   O	15.702	30.153	14.982	O.2	8	LEU387	0.000	
58	  CB	16.889	28.036	17.296	C.3	8	LEU387	0.000	
59	  CG	16.877	26.619	17.886	C.3	8	LEU387	0.000	
60	 CD1	16.791	26.710	19.399	C.3	8	LEU387	0.000	
61	 CD2	15.686	25.846	17.350	C.3	8	LEU387	0.000	
62	   N	17.812	30.508	15.664	N.am	9	MET388	0.000	
63	  CA	17.734	31.949	15.398	C.3	9	MET388	0.000	
64	   C	17.536	32.333	13.932	C.2	9	MET388	0.000	
65	   O	16.766	33.245	13.632	O.2	9	MET388	0.000	
66	  CB	18.967	32.663	15.941	C.3	9	MET388	0.000	
67	  CG	19.041	32.677	17.441	C.3	9	MET388	0.000	
68	  SD	20.452	33.622	17.991	S.3	9	MET388	0.000	
69	  CE	19.912	34.055	19.652	C.3	9	MET388	0.000	
70	   N	14.032	31.791	13.107	N.3	10	LEU391	0.000	
71	  CA	13.214	32.812	13.750	C.3	10	LEU391	0.000	
72	   C	13.202	34.123	12.961	C.2	10	LEU391	0.000	
73	   O	12.162	34.774	12.839	O.2	10	LEU391	0.000	
74	  CB	13.730	33.081	15.167	C.3	10	LEU391	0.000	
75	  CG	13.100	34.252	15.921	C.3	10	LEU391	0.000	
76	 CD1	11.624	34.003	16.110	C.3	10	LEU391	0.000	
77	 CD2	13.803	34.440	17.261	C.3	10	LEU391	0.000	
78	   N	11.012	33.538	9.818	N.3	11	ARG394	0.000	
79	  CA	9.573	33.578	10.105	C.3	11	ARG394	0.000	
80	   C	9.099	34.994	10.396	C.2	11	ARG394	0.000	
81	   O	7.970	35.364	10.082	O.2	11	ARG394	0.000	
82	  CB	9.226	32.715	11.327	C.3	11	ARG394	0.000	
83	  CG	9.487	31.248	11.184	C.3	11	ARG394	0.000	
84	  CD	8.816	30.485	12.323	C.3	11	ARG394	0.000	
85	  NE	9.433	30.669	13.647	N.pl3	11	ARG394	0.000	
86	  CZ	10.560	30.076	14.049	C.cat	11	ARG394	0.000	
87	 NH1	11.225	29.264	13.240	N.pl3	11	ARG394	0.000	
88	 NH2	10.997	30.250	15.285	N.pl3	11	ARG394	0.000	
89	   N	8.021	33.735	17.038	N.3	12	PHE404	0.000	
90	  CA	8.590	32.517	17.603	C.3	12	PHE404	0.000	
91	   C	7.762	31.297	17.190	C.2	12	PHE404	0.000	
92	   O	8.313	30.235	16.869	O.2	12	PHE404	0.000	
93	  CB	8.644	32.639	19.126	C.3	12	PHE404	0.000	
94	  CG	9.779	33.491	19.622	C.2	12	PHE404	0.000	
95	 CD1	11.026	32.923	19.889	C.2	12	PHE404	0.000	
96	 CD2	9.613	34.865	19.797	C.2	12	PHE404	0.000	
97	 CE1	12.094	33.706	20.322	C.2	12	PHE404	0.000	
98	 CE2	10.681	35.667	20.231	C.2	12	PHE404	0.000	
99	  CZ	11.923	35.083	20.494	C.2	12	PHE404	0.000	
100	   N	17.468	40.797	27.645	N.3	13	MET421	0.000	
101	  CA	16.844	40.220	26.459	C.3	13	MET421	0.000	
102	   C	16.509	41.200	25.329	C.2	13	MET421	0.000	
103	   O	16.576	40.827	24.162	O.2	13	MET421	0.000	
104	  CB	15.584	39.438	26.852	C.3	13	MET421	0.000	
105	  CG	15.108	38.475	25.766	C.3	13	MET421	0.000	
106	  SD	13.778	37.375	26.315	S.3	13	MET421	0.000	
107	  CE	14.743	36.042	27.065	C.3	13	MET421	0.000	
108	   N	19.241	41.360	22.634	N.3	14	ILE424	0.000	
109	  CA	19.252	40.329	21.619	C.3	14	ILE424	0.000	
110	   C	18.007	40.381	20.734	C.2	14	ILE424	0.000	
111	   O	18.082	40.003	19.567	O.2	14	ILE424	0.000	
112	  CB	19.478	38.921	22.227	C.3	14	ILE424	0.000	
113	 CG1	18.403	37.966	21.732	C.3	14	ILE424	0.000	
114	 CG2	19.566	38.990	23.756	C.3	14	ILE424	0.000	
115	 CD1	18.959	36.676	21.288	C.3	14	ILE424	0.000	
116	   N	16.872	40.844	21.266	N.am	15	PHE425	0.000	
117	  CA	15.665	40.964	20.438	C.3	15	PHE425	0.000	
118	   C	15.924	42.027	19.363	C.2	15	PHE425	0.000	
119	   O	15.514	41.875	18.218	O.2	15	PHE425	0.000	
120	  CB	14.430	41.383	21.260	C.3	15	PHE425	0.000	
121	  CG	13.595	40.223	21.769	C.2	15	PHE425	0.000	
122	 CD1	14.196	39.014	22.094	C.2	15	PHE425	0.000	
123	 CD2	12.218	40.360	21.964	C.2	15	PHE425	0.000	
124	 CE1	13.446	37.959	22.606	C.2	15	PHE425	0.000	
125	 CE2	11.456	39.309	22.479	C.2	15	PHE425	0.000	
126	  CZ	12.073	38.106	22.802	C.2	15	PHE425	0.000	
127	   N	18.010	40.574	16.640	N.3	16	LEU428	0.000	
128	  CA	17.183	39.653	15.859	C.3	16	LEU428	0.000	
129	   C	16.266	40.429	14.917	C.2	16	LEU428	0.000	
130	   O	16.111	40.069	13.755	O.2	16	LEU428	0.000	
131	  CB	16.337	38.764	16.786	C.3	16	LEU428	0.000	
132	  CG	17.073	37.642	17.536	C.3	16	LEU428	0.000	
133	 CD1	16.176	37.080	18.635	C.3	16	LEU428	0.000	
134	 CD2	17.483	36.539	16.557	C.3	16	LEU428	0.000	
135	   N	23.361	35.215	22.745	N.3	17	GLY521	0.000	
136	  CA	22.205	34.512	23.262	C.3	17	GLY521	0.000	
137	   C	22.608	33.382	24.195	C.2	17	GLY521	0.000	
138	   O	21.960	33.155	25.211	O.2	17	GLY521	0.000	
139	   N	23.667	34.621	27.487	N.3	18	HIS524	0.000	
140	  CA	22.454	35.052	28.179	C.3	18	HIS524	0.000	
141	   C	21.718	33.871	28.822	C.2	18	HIS524	0.000	
142	   O	21.289	33.954	29.973	O.2	18	HIS524	0.000	
143	  CB	21.526	35.784	27.202	C.3	18	HIS524	0.000	
144	  CG	20.307	36.360	27.850	C.2	18	HIS524	0.000	
145	 CD2	20.121	37.517	28.530	C.2	18	HIS524	0.000	
146	 ND1	19.109	35.683	27.922	N.2	18	HIS524	0.000	
147	 CE1	18.242	36.391	28.619	C.2	18	HIS524	0.000	
148	 NE2	18.832	37.509	29.003	N.pl3	18	HIS524	0.000	
149	   N	21.586	32.786	28.059	N.am	19	LEU525	0.000	
150	  CA	20.926	31.571	28.512	C.3	19	LEU525	0.000	
151	   C	21.689	30.914	29.669	C.2	19	LEU525	0.000	
152	   O	21.083	30.412	30.610	O.2	19	LEU525	0.000	
153	  CB	20.785	30.598	27.337	C.3	19	LEU525	0.000	
154	  CG	20.139	29.235	27.586	C.3	19	LEU525	0.000	
155	 CD1	18.749	29.405	28.173	C.3	19	LEU525	0.000	
156	 CD2	20.068	28.476	26.282	C.3	19	LEU525	0.000	
157	   N	21.134	32.953	32.850	N.3	20	MET528	0.000	
158	  CA	19.801	32.758	33.387	C.3	20	MET528	0.000	
159	   C	19.780	31.388	34.041	C.2	20	MET528	0.000	
160	   O	19.257	31.216	35.139	O.2	20	MET528	0.000	
161	  CB	18.759	32.831	32.273	C.3	20	MET528	0.000	
162	  CG	18.597	34.217	31.654	C.3	20	MET528	0.000	
163	  SD	17.996	35.503	32.789	S.3	20	MET528	0.000	
164	  CE	19.526	36.289	33.261	C.3	20	MET528	0.000	
@<TRIPOS>BOND
1 1 2 1
2 2 3 1
3 2 5 1
4 3 4 2
5 5 6 1
6 6 7 1
7 7 8 1
8 9 10 1
9 10 11 1
10 10 13 1
11 11 12 2
12 11 17 1
13 13 14 1
14 14 15 1
15 14 16 1
16 17 18 1
17 18 19 1
18 18 21 1
19 19 20 2
20 21 22 1
21 21 23 1
22 24 25 1
23 25 26 1
24 25 28 1
25 26 27 2
26 26 32 1
27 28 29 1
28 29 30 1
29 29 31 1
30 32 33 1
31 33 34 1
32 33 36 1
33 34 35 2
34 37 38 1
35 38 39 1
36 38 41 1
37 39 40 2
38 41 42 1
39 42 43 1
40 43 44 2
41 43 45 1
42 46 47 1
43 47 48 1
44 47 50 1
45 48 49 2
46 50 51 1
47 51 52 1
48 51 53 1
49 54 55 1
50 55 56 1
51 55 58 1
52 56 57 2
53 56 62 1
54 58 59 1
55 59 60 1
56 59 61 1
57 62 63 1
58 63 64 1
59 63 66 1
60 64 65 2
61 66 67 1
62 67 68 1
63 68 69 1
64 70 71 1
65 71 72 1
66 71 74 1
67 72 73 2
68 74 75 1
69 75 76 1
70 75 77 1
71 78 79 1
72 79 80 1
73 79 82 1
74 80 81 2
75 82 83 1
76 83 84 1
77 84 85 1
78 85 86 1
79 86 87 2
80 86 88 1
81 89 90 1
82 90 91 1
83 90 93 1
84 91 92 2
85 93 94 1
86 94 95 2
87 94 96 1
88 95 97 1
89 96 98 2
90 97 99 2
91 98 99 1
92 100 101 1
93 101 102 1
94 101 104 1
95 102 103 2
96 104 105 1
97 105 106 1
98 106 107 1
99 108 109 1
100 109 110 1
101 109 112 1
102 110 111 2
103 110 116 1
104 112 113 1
105 112 114 1
106 113 115 1
107 116 117 1
108 117 118 1
109 117 120 1
110 118 119 2
111 120 121 1
112 121 122 2
113 121 123 1
114 122 124 1
115 123 125 2
116 124 126 2
117 125 126 1
118 127 128 1
119 128 129 1
120 128 131 1
121 129 130 2
122 131 132 1
123 132 133 1
124 132 134 1
125 135 136 1
126 136 137 1
127 137 138 2
128 139 140 1
129 140 141 1
130 140 143 1
131 141 142 2
132 141 149 1
133 143 144 1
134 144 145 2
135 144 146 1
136 145 148 1
137 146 147 2
138 147 148 1
139 149 150 1
140 150 151 1
141 150 153 1
142 151 152 2
143 153 154 1
144 154 155 1
145 154 156 1
146 157 158 1
147 158 159 1
148 158 161 1
149 159 160 2
150 161 162 1
151 162 163 1
152 163 164 1
@<TRIPOS>SUBSTRUCTURE
1	MET343	1	RESIDUE	1 A	MET
2	LEU346	9	RESIDUE	1 A	LEU
3	THR347	17	RESIDUE	1 A	THR
4	LEU349	24	RESIDUE	1 A	LEU
5	ALA350	32	RESIDUE	1 A	ALA
6	GLU353	37	RESIDUE	1 A	GLU
7	LEU384	46	RESIDUE	1 A	LEU
8	LEU387	54	RESIDUE	1 A	LEU
9	MET388	62	RESIDUE	1 A	MET
10	LEU391	70	RESIDUE	1 A	LEU
11	ARG394	78	RESIDUE	1 A	ARG
12	PHE404	89	RESIDUE	1 A	PHE
13	MET421	100	RESIDUE	1 A	MET
14	ILE424	108	RESIDUE	1 A	ILE
15	PHE425	116	RESIDUE	1 A	PHE
16	LEU428	127	RESIDUE	1 A	LEU
17	GLY521	135	RESIDUE	1 A	GLY
18	HIS524	139	RESIDUE	1 A	HIS
19	LEU525	149	RESIDUE	1 A	LEU
20	MET528	157	RESIDUE	1 A	MET
