# created with PyMOL 2.5.0
@<TRIPOS>MOLECULE
1xp6
215 202 26              
SMALL
USER_CHARGES
@<TRIPOS>ATOM
1	   N	35.574	-7.689	31.317	N.3	1	MET343	0.000	
2	  CA	35.523	-7.080	29.980	C.3	1	MET343	0.000	
3	   C	34.967	-8.052	28.941	C.2	1	MET343	0.000	
4	   O	34.333	-7.594	27.985	O.2	1	MET343	0.000	
5	  CB	36.886	-6.577	29.496	C.3	1	MET343	0.000	
6	  CG	36.826	-5.963	28.103	C.3	1	MET343	0.000	
7	  SD	35.980	-4.366	28.057	S.3	1	MET343	0.000	
8	  CE	36.153	-3.851	29.759	C.3	1	MET343	0.000	
9	   N	31.138	-7.746	29.361	N.3	2	LEU346	0.000	
10	  CA	30.703	-6.456	28.841	C.3	2	LEU346	0.000	
11	   C	30.811	-6.411	27.322	C.2	2	LEU346	0.000	
12	   O	29.867	-5.965	26.658	O.2	2	LEU346	0.000	
13	  CB	31.515	-5.304	29.463	C.3	2	LEU346	0.000	
14	  CG	31.328	-5.102	30.972	C.3	2	LEU346	0.000	
15	 CD1	32.194	-3.951	31.436	C.3	2	LEU346	0.000	
16	 CD2	29.859	-4.853	31.284	C.3	2	LEU346	0.000	
17	   N	31.944	-6.855	26.794	N.am	3	THR347	0.000	
18	  CA	32.120	-6.854	25.340	C.3	3	THR347	0.000	
19	   C	31.085	-7.723	24.650	C.2	3	THR347	0.000	
20	   O	30.598	-7.310	23.600	O.2	3	THR347	0.000	
21	  CB	33.529	-7.344	24.951	C.3	3	THR347	0.000	
22	 CG2	33.754	-7.320	23.448	C.3	3	THR347	0.000	
23	 OG1	34.472	-6.441	25.539	O.3	3	THR347	0.000	
24	   N	28.106	-8.573	25.642	N.3	4	LEU349	0.000	
25	  CA	26.843	-7.856	25.738	C.3	4	LEU349	0.000	
26	   C	26.711	-6.758	24.694	C.2	4	LEU349	0.000	
27	   O	25.756	-6.688	23.906	O.2	4	LEU349	0.000	
28	  CB	26.708	-7.309	27.175	C.3	4	LEU349	0.000	
29	  CG	25.409	-6.506	27.355	C.3	4	LEU349	0.000	
30	 CD1	24.214	-7.400	27.051	C.3	4	LEU349	0.000	
31	 CD2	25.294	-5.917	28.745	C.3	4	LEU349	0.000	
32	   N	27.695	-5.867	24.655	N.am	5	ALA350	0.000	
33	  CA	27.696	-4.748	23.721	C.3	5	ALA350	0.000	
34	   C	27.619	-5.235	22.282	C.2	5	ALA350	0.000	
35	   O	26.907	-4.656	21.450	O.2	5	ALA350	0.000	
36	  CB	28.937	-3.899	23.951	C.3	5	ALA350	0.000	
37	   N	28.337	-6.312	21.950	N.am	6	ASP351	0.000	
38	  CA	28.286	-6.757	20.546	C.3	6	ASP351	0.000	
39	   C	26.894	-7.273	20.182	C.2	6	ASP351	0.000	
40	   O	26.418	-7.125	19.060	O.2	6	ASP351	0.000	
41	  CB	29.363	-7.789	20.254	C.3	6	ASP351	0.000	
42	  CG	30.799	-7.312	20.359	C.2	6	ASP351	0.000	
43	 OD1	31.065	-6.095	20.372	O.co2	6	ASP351	0.000	
44	 OD2	31.710	-8.167	20.436	O.co2	6	ASP351	0.000	
45	   N	24.107	-6.233	21.458	N.3	7	GLU353	0.000	
46	  CA	23.248	-5.054	21.348	C.3	7	GLU353	0.000	
47	   C	23.366	-4.406	19.977	C.2	7	GLU353	0.000	
48	   O	22.423	-3.810	19.436	O.2	7	GLU353	0.000	
49	  CB	23.609	-4.068	22.453	C.3	7	GLU353	0.000	
50	  CG	22.994	-4.432	23.815	C.3	7	GLU353	0.000	
51	  CD	23.143	-3.225	24.727	C.2	7	GLU353	0.000	
52	 OE1	22.337	-2.271	24.699	O.co2	7	GLU353	0.000	
53	 OE2	24.124	-3.212	25.470	O.co2	7	GLU353	0.000	
54	   N	24.546	-4.513	19.378	N.am	8	LEU354	0.000	
55	  CA	24.767	-3.765	18.129	C.3	8	LEU354	0.000	
56	   C	23.799	-4.217	17.051	C.2	8	LEU354	0.000	
57	   O	23.316	-3.418	16.250	O.2	8	LEU354	0.000	
58	  CB	26.232	-3.875	17.703	C.3	8	LEU354	0.000	
59	  CG	26.621	-3.147	16.413	C.3	8	LEU354	0.000	
60	 CD1	26.606	-1.639	16.568	C.3	8	LEU354	0.000	
61	 CD2	27.996	-3.637	15.949	C.3	8	LEU354	0.000	
62	   N	27.618	4.801	17.684	N.3	9	TRP383	0.000	
63	  CA	27.220	3.546	18.330	C.3	9	TRP383	0.000	
64	   C	27.565	3.540	19.817	C.2	9	TRP383	0.000	
65	   O	26.766	3.037	20.593	O.2	9	TRP383	0.000	
66	  CB	27.813	2.304	17.629	C.3	9	TRP383	0.000	
67	  CG	29.305	2.207	17.828	C.2	9	TRP383	0.000	
68	 CD1	30.240	2.731	16.993	C.2	9	TRP383	0.000	
69	 CD2	30.031	1.586	18.883	C.2	9	TRP383	0.000	
70	 CE2	31.401	1.762	18.632	C.2	9	TRP383	0.000	
71	 CE3	29.624	0.880	20.035	C.2	9	TRP383	0.000	
72	 NE1	31.505	2.467	17.468	N.pl3	9	TRP383	0.000	
73	 CZ2	32.389	1.269	19.477	C.2	9	TRP383	0.000	
74	 CZ3	30.606	0.396	20.867	C.2	9	TRP383	0.000	
75	 CH2	31.967	0.582	20.602	C.2	9	TRP383	0.000	
76	   N	28.699	4.077	20.248	N.am	10	LEU384	0.000	
77	  CA	28.990	3.974	21.671	C.3	10	LEU384	0.000	
78	   C	28.173	4.992	22.450	C.2	10	LEU384	0.000	
79	   O	27.713	4.671	23.564	O.2	10	LEU384	0.000	
80	  CB	30.498	4.126	21.931	C.3	10	LEU384	0.000	
81	  CG	30.896	3.916	23.403	C.3	10	LEU384	0.000	
82	 CD1	30.437	2.554	23.895	C.3	10	LEU384	0.000	
83	 CD2	32.397	4.071	23.586	C.3	10	LEU384	0.000	
84	   N	24.803	3.131	22.895	N.3	11	LEU387	0.000	
85	  CA	24.892	2.156	23.986	C.3	11	LEU387	0.000	
86	   C	24.940	2.844	25.349	C.2	11	LEU387	0.000	
87	   O	24.294	2.403	26.299	O.2	11	LEU387	0.000	
88	  CB	26.161	1.331	23.857	C.3	11	LEU387	0.000	
89	  CG	26.248	0.293	22.729	C.3	11	LEU387	0.000	
90	 CD1	27.594	-0.427	22.831	C.3	11	LEU387	0.000	
91	 CD2	25.059	-0.657	22.793	C.3	11	LEU387	0.000	
92	   N	25.724	3.927	25.462	N.am	12	MET388	0.000	
93	  CA	25.889	4.537	26.772	C.3	12	MET388	0.000	
94	   C	24.620	5.241	27.239	C.2	12	MET388	0.000	
95	   O	24.299	5.096	28.418	O.2	12	MET388	0.000	
96	  CB	27.050	5.537	26.777	C.3	12	MET388	0.000	
97	  CG	28.406	4.845	26.739	C.3	12	MET388	0.000	
98	  SD	29.727	6.065	26.727	S.3	12	MET388	0.000	
99	  CE	31.124	5.019	27.228	C.3	12	MET388	0.000	
100	   N	22.453	2.587	28.573	N.3	13	LEU391	0.000	
101	  CA	22.921	2.142	29.883	C.3	13	LEU391	0.000	
102	   C	22.580	3.109	31.002	C.2	13	LEU391	0.000	
103	   O	22.139	2.700	32.088	O.2	13	LEU391	0.000	
104	  CB	24.443	1.922	29.808	C.3	13	LEU391	0.000	
105	  CG	25.115	1.588	31.146	C.3	13	LEU391	0.000	
106	 CD1	24.658	0.224	31.657	C.3	13	LEU391	0.000	
107	 CD2	26.631	1.654	30.952	C.3	13	LEU391	0.000	
108	   N	18.769	2.810	31.723	N.3	14	ARG394	0.000	
109	  CA	18.297	1.687	32.533	C.3	14	ARG394	0.000	
110	   C	18.922	1.717	33.934	C.2	14	ARG394	0.000	
111	   O	18.410	1.045	34.826	O.2	14	ARG394	0.000	
112	  CB	18.529	0.327	31.933	C.3	14	ARG394	0.000	
113	  CG	19.452	0.107	30.792	C.3	14	ARG394	0.000	
114	  CD	19.501	-1.380	30.408	C.3	14	ARG394	0.000	
115	  NE	20.893	-1.684	30.082	N.pl3	14	ARG394	0.000	
116	  CZ	21.542	-1.284	28.993	C.cat	14	ARG394	0.000	
117	 NH1	20.974	-0.545	28.051	N.pl3	14	ARG394	0.000	
118	 NH2	22.809	-1.644	28.836	N.pl3	14	ARG394	0.000	
119	   N	24.088	-2.897	33.442	N.3	15	PHE404	0.000	
120	  CA	24.541	-3.355	32.132	C.3	15	PHE404	0.000	
121	   C	23.499	-4.288	31.516	C.2	15	PHE404	0.000	
122	   O	23.188	-4.203	30.344	O.2	15	PHE404	0.000	
123	  CB	25.912	-4.047	32.248	C.3	15	PHE404	0.000	
124	  CG	26.988	-2.999	32.450	C.2	15	PHE404	0.000	
125	 CD1	27.486	-2.285	31.361	C.2	15	PHE404	0.000	
126	 CD2	27.469	-2.731	33.715	C.2	15	PHE404	0.000	
127	 CE1	28.451	-1.311	31.557	C.2	15	PHE404	0.000	
128	 CE2	28.443	-1.755	33.909	C.2	15	PHE404	0.000	
129	  CZ	28.929	-1.036	32.834	C.2	15	PHE404	0.000	
130	   N	39.052	1.547	33.953	N.3	16	MET421	0.000	
131	  CA	37.600	1.540	33.721	C.3	16	MET421	0.000	
132	   C	36.841	2.327	34.776	C.2	16	MET421	0.000	
133	   O	35.734	2.800	34.495	O.2	16	MET421	0.000	
134	  CB	37.067	0.102	33.619	C.3	16	MET421	0.000	
135	  CG	35.712	0.014	32.928	C.3	16	MET421	0.000	
136	  SD	35.281	-1.657	32.397	S.3	16	MET421	0.000	
137	  CE	35.346	-2.517	33.983	C.3	16	MET421	0.000	
138	   N	35.527	5.682	33.635	N.3	17	ILE424	0.000	
139	  CA	34.353	5.634	32.762	C.3	17	ILE424	0.000	
140	   C	33.078	5.367	33.555	C.2	17	ILE424	0.000	
141	   O	32.057	6.043	33.351	O.2	17	ILE424	0.000	
142	  CB	34.526	4.567	31.662	C.3	17	ILE424	0.000	
143	 CG1	35.837	4.667	30.875	C.3	17	ILE424	0.000	
144	 CG2	33.321	4.559	30.723	C.3	17	ILE424	0.000	
145	 CD1	36.087	5.966	30.162	C.3	17	ILE424	0.000	
146	   N	29.516	7.622	33.790	N.3	18	LEU428	0.000	
147	  CA	28.212	7.025	33.494	C.3	18	LEU428	0.000	
148	   C	27.297	7.182	34.699	C.2	18	LEU428	0.000	
149	   O	26.135	7.576	34.619	O.2	18	LEU428	0.000	
150	  CB	28.378	5.553	33.094	C.3	18	LEU428	0.000	
151	  CG	29.079	5.302	31.759	C.3	18	LEU428	0.000	
152	 CD1	29.599	3.869	31.701	C.3	18	LEU428	0.000	
153	 CD2	28.170	5.611	30.554	C.3	18	LEU428	0.000	
154	   N	36.049	9.182	25.434	N.3	19	LYS520	0.000	
155	  CA	36.959	8.636	26.443	C.3	19	LYS520	0.000	
156	   C	36.876	7.115	26.484	C.2	19	LYS520	0.000	
157	   O	37.873	6.410	26.683	O.2	19	LYS520	0.000	
158	  CB	36.631	9.236	27.802	C.3	19	LYS520	0.000	
159	  CG	36.848	10.727	27.990	C.3	19	LYS520	0.000	
160	  CD	38.274	11.176	27.728	C.3	19	LYS520	0.000	
161	  CE	39.227	10.767	28.841	C.3	19	LYS520	0.000	
162	  NZ	40.319	11.760	29.065	N.4	19	LYS520	0.000	
163	   N	35.657	6.595	26.283	N.am	20	GLY521	0.000	
164	  CA	35.531	5.131	26.263	C.3	20	GLY521	0.000	
165	   C	36.180	4.585	24.998	C.2	20	GLY521	0.000	
166	   O	36.821	3.540	25.023	O.2	20	GLY521	0.000	
167	   N	39.729	4.403	25.810	N.3	21	HIS524	0.000	
168	  CA	39.994	3.335	26.777	C.3	21	HIS524	0.000	
169	   C	39.899	1.976	26.103	C.2	21	HIS524	0.000	
170	   O	40.743	1.103	26.294	O.2	21	HIS524	0.000	
171	  CB	39.029	3.420	27.960	C.3	21	HIS524	0.000	
172	  CG	39.251	2.384	29.021	C.2	21	HIS524	0.000	
173	 CD2	40.311	2.088	29.795	C.2	21	HIS524	0.000	
174	 ND1	38.287	1.486	29.408	N.2	21	HIS524	0.000	
175	 CE1	38.727	0.678	30.358	C.2	21	HIS524	0.000	
176	 NE2	39.972	1.033	30.618	N.pl3	21	HIS524	0.000	
177	   N	38.857	1.778	25.288	N.am	22	LEU525	0.000	
178	  CA	38.765	0.507	24.575	C.3	22	LEU525	0.000	
179	   C	39.985	0.253	23.707	C.2	22	LEU525	0.000	
180	   O	40.440	-0.885	23.569	O.2	22	LEU525	0.000	
181	  CB	37.497	0.434	23.716	C.3	22	LEU525	0.000	
182	  CG	36.208	0.382	24.545	C.3	22	LEU525	0.000	
183	 CD1	34.999	0.441	23.616	C.3	22	LEU525	0.000	
184	 CD2	36.182	-0.847	25.443	C.3	22	LEU525	0.000	
185	   N	38.866	-6.280	23.467	N.3	23	CYS530	0.000	
186	  CA	37.442	-6.203	23.191	C.3	23	CYS530	0.000	
187	   C	37.075	-6.657	21.776	C.2	23	CYS530	0.000	
188	   O	36.433	-7.710	21.649	O.2	23	CYS530	0.000	
189	  CB	36.892	-4.801	23.461	C.3	23	CYS530	0.000	
190	  SG	37.722	-3.465	22.577	S.3	23	CYS530	0.000	
191	   N	37.450	-5.930	20.734	N.am	24	LYS531	0.000	
192	  CA	37.260	-6.345	19.350	C.3	24	LYS531	0.000	
193	   C	37.620	-5.248	18.350	C.2	24	LYS531	0.000	
194	   O	37.090	-4.140	18.399	O.2	24	LYS531	0.000	
195	  CB	35.817	-6.799	19.085	C.3	24	LYS531	0.000	
196	  CG	35.718	-7.681	17.844	C.3	24	LYS531	0.000	
197	  CD	35.112	-6.902	16.684	C.3	24	LYS531	0.000	
198	  CE	33.862	-7.607	16.175	C.3	24	LYS531	0.000	
199	  NZ	33.034	-8.136	17.300	N.4	24	LYS531	0.000	
200	   N	35.076	-1.660	11.522	N.3	25	LEU536	0.000	
201	  CA	33.688	-1.446	11.909	C.3	25	LEU536	0.000	
202	   C	32.845	-1.023	10.710	C.2	25	LEU536	0.000	
203	   O	31.702	-1.475	10.616	O.2	25	LEU536	0.000	
204	  CB	33.559	-0.400	13.022	C.3	25	LEU536	0.000	
205	  CG	32.146	-0.247	13.572	C.3	25	LEU536	0.000	
206	 CD1	31.559	-1.635	13.838	C.3	25	LEU536	0.000	
207	 CD2	32.119	0.598	14.843	C.3	25	LEU536	0.000	
208	   N	31.625	-4.001	8.823	N.3	26	LEU539	0.000	
209	  CA	30.733	-4.877	9.582	C.3	26	LEU539	0.000	
210	   C	29.340	-4.255	9.649	C.2	26	LEU539	0.000	
211	   O	28.305	-4.920	9.552	O.2	26	LEU539	0.000	
212	  CB	31.309	-5.154	10.967	C.3	26	LEU539	0.000	
213	  CG	30.428	-6.003	11.887	C.3	26	LEU539	0.000	
214	 CD1	30.412	-7.464	11.453	C.3	26	LEU539	0.000	
215	 CD2	30.829	-5.878	13.360	C.3	26	LEU539	0.000	
@<TRIPOS>BOND
1 1 2 1
2 2 3 1
3 2 5 1
4 3 4 2
5 5 6 1
6 6 7 1
7 7 8 1
8 9 10 1
9 10 11 1
10 10 13 1
11 11 12 2
12 11 17 1
13 13 14 1
14 14 15 1
15 14 16 1
16 17 18 1
17 18 19 1
18 18 21 1
19 19 20 2
20 21 22 1
21 21 23 1
22 24 25 1
23 25 26 1
24 25 28 1
25 26 27 2
26 26 32 1
27 28 29 1
28 29 30 1
29 29 31 1
30 32 33 1
31 33 34 1
32 33 36 1
33 34 35 2
34 34 37 1
35 37 38 1
36 38 39 1
37 38 41 1
38 39 40 2
39 41 42 1
40 42 43 2
41 42 44 1
42 45 46 1
43 46 47 1
44 46 49 1
45 47 48 2
46 47 54 1
47 49 50 1
48 50 51 1
49 51 52 2
50 51 53 1
51 54 55 1
52 55 56 1
53 55 58 1
54 56 57 2
55 58 59 1
56 59 60 1
57 59 61 1
58 62 63 1
59 63 64 1
60 63 66 1
61 64 65 2
62 64 76 1
63 66 67 1
64 67 68 2
65 67 69 1
66 68 72 1
67 69 70 2
68 69 71 1
69 70 73 1
70 71 74 2
71 70 72 1
72 73 75 2
73 74 75 1
74 76 77 1
75 77 78 1
76 77 80 1
77 78 79 2
78 80 81 1
79 81 82 1
80 81 83 1
81 84 85 1
82 85 86 1
83 85 88 1
84 86 87 2
85 86 92 1
86 88 89 1
87 89 90 1
88 89 91 1
89 92 93 1
90 93 94 1
91 93 96 1
92 94 95 2
93 96 97 1
94 97 98 1
95 98 99 1
96 100 101 1
97 101 102 1
98 101 104 1
99 102 103 2
100 104 105 1
101 105 106 1
102 105 107 1
103 108 109 1
104 109 110 1
105 109 112 1
106 110 111 2
107 112 113 1
108 113 114 1
109 114 115 1
110 115 116 1
111 116 117 2
112 116 118 1
113 119 120 1
114 120 121 1
115 120 123 1
116 121 122 2
117 123 124 1
118 124 125 2
119 124 126 1
120 125 127 1
121 126 128 2
122 127 129 2
123 128 129 1
124 130 131 1
125 131 132 1
126 131 134 1
127 132 133 2
128 134 135 1
129 135 136 1
130 136 137 1
131 138 139 1
132 139 140 1
133 139 142 1
134 140 141 2
135 142 143 1
136 142 144 1
137 143 145 1
138 146 147 1
139 147 148 1
140 147 150 1
141 148 149 2
142 150 151 1
143 151 152 1
144 151 153 1
145 154 155 1
146 155 156 1
147 155 158 1
148 156 157 2
149 156 163 1
150 158 159 1
151 159 160 1
152 160 161 1
153 161 162 1
154 163 164 1
155 164 165 1
156 165 166 2
157 167 168 1
158 168 169 1
159 168 171 1
160 169 170 2
161 169 177 1
162 171 172 1
163 172 173 2
164 172 174 1
165 173 176 1
166 174 175 2
167 175 176 1
168 177 178 1
169 178 179 1
170 178 181 1
171 179 180 2
172 181 182 1
173 182 183 1
174 182 184 1
175 185 186 1
176 186 187 1
177 186 189 1
178 187 188 2
179 187 191 1
180 189 190 1
181 191 192 1
182 192 193 1
183 192 195 1
184 193 194 2
185 195 196 1
186 196 197 1
187 197 198 1
188 198 199 1
189 200 201 1
190 201 202 1
191 201 204 1
192 202 203 2
193 204 205 1
194 205 206 1
195 205 207 1
196 208 209 1
197 209 210 1
198 209 212 1
199 210 211 2
200 212 213 1
201 213 214 1
202 213 215 1
@<TRIPOS>SUBSTRUCTURE
1	MET343	1	RESIDUE	1 A	MET
2	LEU346	9	RESIDUE	1 A	LEU
3	THR347	17	RESIDUE	1 A	THR
4	LEU349	24	RESIDUE	1 A	LEU
5	ALA350	32	RESIDUE	1 A	ALA
6	ASP351	37	RESIDUE	1 A	ASP
7	GLU353	45	RESIDUE	1 A	GLU
8	LEU354	54	RESIDUE	1 A	LEU
9	TRP383	62	RESIDUE	1 A	TRP
10	LEU384	76	RESIDUE	1 A	LEU
11	LEU387	84	RESIDUE	1 A	LEU
12	MET388	92	RESIDUE	1 A	MET
13	LEU391	100	RESIDUE	1 A	LEU
14	ARG394	108	RESIDUE	1 A	ARG
15	PHE404	119	RESIDUE	1 A	PHE
16	MET421	130	RESIDUE	1 A	MET
17	ILE424	138	RESIDUE	1 A	ILE
18	LEU428	146	RESIDUE	1 A	LEU
19	LYS520	154	RESIDUE	1 A	LYS
20	GLY521	163	RESIDUE	1 A	GLY
21	HIS524	167	RESIDUE	1 A	HIS
22	LEU525	177	RESIDUE	1 A	LEU
23	CYS530	185	RESIDUE	1 A	CYS
24	LYS531	191	RESIDUE	1 A	LYS
25	LEU536	200	RESIDUE	1 A	LEU
26	LEU539	208	RESIDUE	1 A	LEU
