# created with PyMOL 2.5.0
@<TRIPOS>MOLECULE
2ayr
229 217 28              
SMALL
USER_CHARGES
@<TRIPOS>ATOM
1	   N	35.492	-7.428	31.223	N.3	1	MET343	0.000	
2	  CA	35.541	-6.818	29.901	C.3	1	MET343	0.000	
3	   C	35.015	-7.801	28.853	C.2	1	MET343	0.000	
4	   O	34.422	-7.404	27.845	O.2	1	MET343	0.000	
5	  CB	36.978	-6.406	29.570	C.3	1	MET343	0.000	
6	  CG	37.081	-5.292	28.545	C.3	1	MET343	0.000	
7	  SD	36.190	-3.796	29.054	S.3	1	MET343	0.000	
8	  CE	35.590	-3.279	27.500	C.3	1	MET343	0.000	
9	   N	31.135	-7.527	29.088	N.3	2	LEU346	0.000	
10	  CA	30.631	-6.285	28.513	C.3	2	LEU346	0.000	
11	   C	30.791	-6.248	26.999	C.2	2	LEU346	0.000	
12	   O	29.913	-5.759	26.288	O.2	2	LEU346	0.000	
13	  CB	31.354	-5.087	29.130	C.3	2	LEU346	0.000	
14	  CG	31.166	-4.955	30.642	C.3	2	LEU346	0.000	
15	 CD1	31.945	-3.751	31.140	C.3	2	LEU346	0.000	
16	 CD2	29.686	-4.820	30.972	C.3	2	LEU346	0.000	
17	   N	31.914	-6.758	26.509	N.am	3	THR347	0.000	
18	  CA	32.143	-6.822	25.073	C.3	3	THR347	0.000	
19	   C	31.095	-7.689	24.386	C.2	3	THR347	0.000	
20	   O	30.551	-7.304	23.349	O.2	3	THR347	0.000	
21	  CB	33.539	-7.383	24.758	C.3	3	THR347	0.000	
22	 CG2	33.723	-7.538	23.259	C.3	3	THR347	0.000	
23	 OG1	34.537	-6.492	25.272	O.3	3	THR347	0.000	
24	   N	28.118	-8.437	25.456	N.3	4	LEU349	0.000	
25	  CA	26.833	-7.769	25.541	C.3	4	LEU349	0.000	
26	   C	26.747	-6.707	24.447	C.2	4	LEU349	0.000	
27	   O	25.776	-6.664	23.689	O.2	4	LEU349	0.000	
28	  CB	26.660	-7.127	26.923	C.3	4	LEU349	0.000	
29	  CG	25.324	-6.423	27.186	C.3	4	LEU349	0.000	
30	 CD1	24.202	-7.447	27.126	C.3	4	LEU349	0.000	
31	 CD2	25.341	-5.738	28.558	C.3	4	LEU349	0.000	
32	   N	27.773	-5.862	24.365	N.am	5	ALA350	0.000	
33	  CA	27.806	-4.769	23.392	C.3	5	ALA350	0.000	
34	   C	27.657	-5.286	21.959	C.2	5	ALA350	0.000	
35	   O	26.898	-4.727	21.164	O.2	5	ALA350	0.000	
36	  CB	29.116	-3.992	23.531	C.3	5	ALA350	0.000	
37	   N	28.375	-6.356	21.632	N.am	6	ASP351	0.000	
38	  CA	28.296	-6.934	20.294	C.3	6	ASP351	0.000	
39	   C	26.903	-7.446	19.945	C.2	6	ASP351	0.000	
40	   O	26.460	-7.303	18.810	O.2	6	ASP351	0.000	
41	  CB	29.309	-8.065	20.139	C.3	6	ASP351	0.000	
42	  CG	30.734	-7.559	20.058	C.2	6	ASP351	0.000	
43	 OD1	30.928	-6.373	19.715	O.co2	6	ASP351	0.000	
44	 OD2	31.663	-8.345	20.329	O.co2	6	ASP351	0.000	
45	   N	24.061	-6.324	21.359	N.3	7	GLU353	0.000	
46	  CA	23.194	-5.155	21.307	C.3	7	GLU353	0.000	
47	   C	23.297	-4.435	19.972	C.2	7	GLU353	0.000	
48	   O	22.327	-3.856	19.488	O.2	7	GLU353	0.000	
49	  CB	23.546	-4.173	22.424	C.3	7	GLU353	0.000	
50	  CG	23.000	-4.568	23.783	C.3	7	GLU353	0.000	
51	  CD	23.293	-3.534	24.836	C.2	7	GLU353	0.000	
52	 OE1	24.423	-3.545	25.355	O.co2	7	GLU353	0.000	
53	 OE2	22.399	-2.712	25.139	O.co2	7	GLU353	0.000	
54	   N	24.479	-4.466	19.378	N.am	8	LEU354	0.000	
55	  CA	24.705	-3.731	18.137	C.3	8	LEU354	0.000	
56	   C	23.743	-4.219	17.065	C.2	8	LEU354	0.000	
57	   O	23.238	-3.438	16.263	O.2	8	LEU354	0.000	
58	  CB	26.143	-3.927	17.669	C.3	8	LEU354	0.000	
59	  CG	26.552	-3.151	16.415	C.3	8	LEU354	0.000	
60	 CD1	26.363	-1.660	16.652	C.3	8	LEU354	0.000	
61	 CD2	28.000	-3.466	16.078	C.3	8	LEU354	0.000	
62	   N	27.529	4.736	17.712	N.3	9	TRP383	0.000	
63	  CA	27.138	3.485	18.356	C.3	9	TRP383	0.000	
64	   C	27.449	3.433	19.843	C.2	9	TRP383	0.000	
65	   O	26.639	2.938	20.611	O.2	9	TRP383	0.000	
66	  CB	27.783	2.283	17.648	C.3	9	TRP383	0.000	
67	  CG	29.261	2.212	17.780	C.2	9	TRP383	0.000	
68	 CD1	30.181	2.750	16.936	C.2	9	TRP383	0.000	
69	 CD2	29.997	1.545	18.810	C.2	9	TRP383	0.000	
70	 CE2	31.364	1.722	18.527	C.2	9	TRP383	0.000	
71	 CE3	29.631	0.814	19.950	C.2	9	TRP383	0.000	
72	 NE1	31.450	2.461	17.374	N.pl3	9	TRP383	0.000	
73	 CZ2	32.371	1.195	19.335	C.2	9	TRP383	0.000	
74	 CZ3	30.632	0.291	20.755	C.2	9	TRP383	0.000	
75	 CH2	31.986	0.485	20.444	C.2	9	TRP383	0.000	
76	   N	28.605	3.944	20.267	N.am	10	LEU384	0.000	
77	  CA	28.932	3.870	21.680	C.3	10	LEU384	0.000	
78	   C	28.143	4.862	22.524	C.2	10	LEU384	0.000	
79	   O	27.773	4.552	23.654	O.2	10	LEU384	0.000	
80	  CB	30.436	4.063	21.911	C.3	10	LEU384	0.000	
81	  CG	30.843	3.847	23.378	C.3	10	LEU384	0.000	
82	 CD1	30.339	2.481	23.869	C.3	10	LEU384	0.000	
83	 CD2	32.357	3.931	23.509	C.3	10	LEU384	0.000	
84	   N	24.756	3.068	22.984	N.3	11	LEU387	0.000	
85	  CA	24.886	2.088	24.064	C.3	11	LEU387	0.000	
86	   C	24.908	2.770	25.437	C.2	11	LEU387	0.000	
87	   O	24.259	2.307	26.383	O.2	11	LEU387	0.000	
88	  CB	26.170	1.274	23.904	C.3	11	LEU387	0.000	
89	  CG	26.247	0.312	22.724	C.3	11	LEU387	0.000	
90	 CD1	27.524	-0.491	22.841	C.3	11	LEU387	0.000	
91	 CD2	25.020	-0.613	22.728	C.3	11	LEU387	0.000	
92	   N	25.654	3.867	25.546	N.am	12	MET388	0.000	
93	  CA	25.804	4.540	26.832	C.3	12	MET388	0.000	
94	   C	24.533	5.217	27.309	C.2	12	MET388	0.000	
95	   O	24.172	5.100	28.478	O.2	12	MET388	0.000	
96	  CB	26.942	5.563	26.775	C.3	12	MET388	0.000	
97	  CG	28.309	4.930	26.827	C.3	12	MET388	0.000	
98	  SD	29.585	6.183	26.589	S.3	12	MET388	0.000	
99	  CE	31.052	5.228	26.984	C.3	12	MET388	0.000	
100	   N	22.234	2.549	28.596	N.3	13	LEU391	0.000	
101	  CA	22.665	2.093	29.924	C.3	13	LEU391	0.000	
102	   C	22.262	3.073	31.022	C.2	13	LEU391	0.000	
103	   O	21.716	2.684	32.062	O.2	13	LEU391	0.000	
104	  CB	24.184	1.917	29.952	C.3	13	LEU391	0.000	
105	  CG	24.856	1.634	31.298	C.3	13	LEU391	0.000	
106	 CD1	24.503	0.228	31.787	C.3	13	LEU391	0.000	
107	 CD2	26.357	1.771	31.135	C.3	13	LEU391	0.000	
108	   N	18.511	2.870	31.786	N.3	14	ARG394	0.000	
109	  CA	18.030	1.766	32.604	C.3	14	ARG394	0.000	
110	   C	18.685	1.690	33.981	C.2	14	ARG394	0.000	
111	   O	18.231	0.937	34.841	O.2	14	ARG394	0.000	
112	  CB	18.163	0.429	31.866	C.3	14	ARG394	0.000	
113	  CG	19.486	0.171	31.229	C.3	14	ARG394	0.000	
114	  CD	19.449	-1.133	30.431	C.3	14	ARG394	0.000	
115	  NE	20.806	-1.565	30.128	N.pl3	14	ARG394	0.000	
116	  CZ	21.436	-1.292	28.993	C.cat	14	ARG394	0.000	
117	 NH1	20.820	-0.596	28.047	N.pl3	14	ARG394	0.000	
118	 NH2	22.691	-1.690	28.819	N.pl3	14	ARG394	0.000	
119	   N	24.037	-2.726	33.373	N.3	15	PHE404	0.000	
120	  CA	24.453	-3.145	32.046	C.3	15	PHE404	0.000	
121	   C	23.461	-4.180	31.515	C.2	15	PHE404	0.000	
122	   O	23.135	-4.197	30.327	O.2	15	PHE404	0.000	
123	  CB	25.864	-3.732	32.105	C.3	15	PHE404	0.000	
124	  CG	26.944	-2.691	32.278	C.2	15	PHE404	0.000	
125	 CD1	27.429	-1.993	31.183	C.2	15	PHE404	0.000	
126	 CD2	27.461	-2.406	33.529	C.2	15	PHE404	0.000	
127	 CE1	28.414	-1.025	31.334	C.2	15	PHE404	0.000	
128	 CE2	28.447	-1.440	33.688	C.2	15	PHE404	0.000	
129	  CZ	28.922	-0.750	32.588	C.2	15	PHE404	0.000	
130	   N	39.676	-3.196	35.072	N.3	16	VAL418	0.000	
131	  CA	40.204	-2.726	33.792	C.3	16	VAL418	0.000	
132	   C	40.638	-1.259	33.814	C.2	16	VAL418	0.000	
133	   O	40.078	-0.437	34.541	O.2	16	VAL418	0.000	
134	  CB	39.171	-2.915	32.659	C.3	16	VAL418	0.000	
135	 CG1	39.720	-2.347	31.357	C.3	16	VAL418	0.000	
136	 CG2	38.854	-4.393	32.489	C.3	16	VAL418	0.000	
137	   N	41.636	-0.937	32.997	N.am	17	GLU419	0.000	
138	  CA	42.232	0.393	32.985	C.3	17	GLU419	0.000	
139	   C	41.264	1.444	32.444	C.2	17	GLU419	0.000	
140	   O	40.625	1.241	31.411	O.2	17	GLU419	0.000	
141	  CB	43.506	0.383	32.134	C.3	17	GLU419	0.000	
142	  CG	44.302	1.683	32.159	C.3	17	GLU419	0.000	
143	  CD	45.610	1.577	31.395	C.2	17	GLU419	0.000	
144	 OE1	45.957	0.460	30.954	O.co2	17	GLU419	0.000	
145	 OE2	46.295	2.611	31.235	O.co2	17	GLU419	0.000	
146	   N	41.161	2.566	33.149	N.am	18	GLY420	0.000	
147	  CA	40.316	3.653	32.690	C.3	18	GLY420	0.000	
148	   C	38.841	3.419	32.951	C.2	18	GLY420	0.000	
149	   O	38.017	4.321	32.792	O.2	18	GLY420	0.000	
150	   N	38.497	2.205	33.360	N.am	19	MET421	0.000	
151	  CA	37.096	1.837	33.488	C.3	19	MET421	0.000	
152	   C	36.398	2.564	34.635	C.2	19	MET421	0.000	
153	   O	35.277	3.045	34.479	O.2	19	MET421	0.000	
154	  CB	36.967	0.321	33.664	C.3	19	MET421	0.000	
155	  CG	35.534	-0.179	33.745	C.3	19	MET421	0.000	
156	  SD	35.425	-1.980	33.621	S.3	19	MET421	0.000	
157	  CE	35.554	-2.189	31.893	C.3	19	MET421	0.000	
158	   N	35.255	5.959	33.656	N.3	20	ILE424	0.000	
159	  CA	34.093	5.962	32.781	C.3	20	ILE424	0.000	
160	   C	32.826	5.577	33.541	C.2	20	ILE424	0.000	
161	   O	31.772	6.185	33.343	O.2	20	ILE424	0.000	
162	  CB	34.321	5.019	31.579	C.3	20	ILE424	0.000	
163	 CG1	35.376	5.642	30.660	C.3	20	ILE424	0.000	
164	 CG2	33.014	4.778	30.824	C.3	20	ILE424	0.000	
165	 CD1	35.744	4.798	29.486	C.3	20	ILE424	0.000	
166	   N	29.422	7.760	33.812	N.3	21	LEU428	0.000	
167	  CA	28.123	7.174	33.490	C.3	21	LEU428	0.000	
168	   C	27.165	7.296	34.673	C.2	21	LEU428	0.000	
169	   O	25.999	7.661	34.508	O.2	21	LEU428	0.000	
170	  CB	28.298	5.706	33.094	C.3	21	LEU428	0.000	
171	  CG	28.928	5.502	31.717	C.3	21	LEU428	0.000	
172	 CD1	29.517	4.111	31.603	C.3	21	LEU428	0.000	
173	 CD2	27.870	5.744	30.642	C.3	21	LEU428	0.000	
174	   N	36.273	9.054	25.361	N.3	22	LYS520	0.000	
175	  CA	37.197	8.493	26.336	C.3	22	LYS520	0.000	
176	   C	37.139	6.965	26.285	C.2	22	LYS520	0.000	
177	   O	38.169	6.293	26.353	O.2	22	LYS520	0.000	
178	  CB	36.858	8.983	27.746	C.3	22	LYS520	0.000	
179	  CG	36.980	10.489	27.937	C.3	22	LYS520	0.000	
180	  CD	38.376	10.999	27.584	C.3	22	LYS520	0.000	
181	  CE	39.427	10.468	28.548	C.3	22	LYS520	0.000	
182	  NZ	40.800	10.966	28.205	N.4	22	LYS520	0.000	
183	   N	35.933	6.424	26.141	N.am	23	GLY521	0.000	
184	  CA	35.786	4.985	26.003	C.3	23	GLY521	0.000	
185	   C	36.496	4.457	24.770	C.2	23	GLY521	0.000	
186	   O	37.181	3.439	24.832	O.2	23	GLY521	0.000	
187	   N	40.347	3.959	25.114	N.3	24	HIS524	0.000	
188	  CA	40.771	2.730	25.773	C.3	24	HIS524	0.000	
189	   C	40.441	1.482	24.959	C.2	24	HIS524	0.000	
190	   O	41.203	0.520	24.966	O.2	24	HIS524	0.000	
191	  CB	40.138	2.641	27.164	C.3	24	HIS524	0.000	
192	  CG	40.556	3.746	28.083	C.2	24	HIS524	0.000	
193	 CD2	41.781	4.123	28.522	C.2	24	HIS524	0.000	
194	 ND1	39.658	4.624	28.653	N.2	24	HIS524	0.000	
195	 CE1	40.312	5.494	29.402	C.2	24	HIS524	0.000	
196	 NE2	41.601	5.212	29.340	N.pl3	24	HIS524	0.000	
197	   N	39.321	1.501	24.243	N.am	25	LEU525	0.000	
198	  CA	38.925	0.347	23.438	C.3	25	LEU525	0.000	
199	   C	39.882	0.175	22.262	C.2	25	LEU525	0.000	
200	   O	40.110	-0.940	21.799	O.2	25	LEU525	0.000	
201	  CB	37.486	0.506	22.920	C.3	25	LEU525	0.000	
202	  CG	36.346	0.431	23.947	C.3	25	LEU525	0.000	
203	 CD1	35.027	0.818	23.304	C.3	25	LEU525	0.000	
204	 CD2	36.269	-0.977	24.535	C.3	25	LEU525	0.000	
205	   N	42.923	-1.350	23.159	N.3	26	MET528	0.000	
206	  CA	42.557	-2.687	23.601	C.3	26	MET528	0.000	
207	   C	42.116	-3.576	22.440	C.2	26	MET528	0.000	
208	   O	42.376	-4.778	22.440	O.2	26	MET528	0.000	
209	  CB	41.443	-2.579	24.647	C.3	26	MET528	0.000	
210	  CG	40.955	-3.895	25.218	C.3	26	MET528	0.000	
211	  SD	39.594	-3.614	26.371	S.3	26	MET528	0.000	
212	  CE	40.455	-2.898	27.773	C.3	26	MET528	0.000	
213	   N	41.451	-2.990	21.449	N.am	27	LYS529	0.000	
214	  CA	40.978	-3.770	20.313	C.3	27	LYS529	0.000	
215	   C	42.002	-3.805	19.188	C.2	27	LYS529	0.000	
216	   O	42.141	-2.851	18.417	O.2	27	LYS529	0.000	
217	  CB	39.650	-3.221	19.777	C.3	27	LYS529	0.000	
218	  CG	39.015	-4.144	18.741	C.3	27	LYS529	0.000	
219	  CD	37.621	-3.702	18.321	C.3	27	LYS529	0.000	
220	  CE	37.039	-4.663	17.290	C.3	27	LYS529	0.000	
221	  NZ	35.735	-4.192	16.750	N.4	27	LYS529	0.000	
222	   N	35.017	-1.960	11.531	N.3	28	LEU536	0.000	
223	  CA	33.649	-1.743	11.975	C.3	28	LEU536	0.000	
224	   C	32.749	-1.272	10.834	C.2	28	LEU536	0.000	
225	   O	31.615	-1.724	10.713	O.2	28	LEU536	0.000	
226	  CB	33.626	-0.722	13.117	C.3	28	LEU536	0.000	
227	  CG	32.250	-0.433	13.713	C.3	28	LEU536	0.000	
228	 CD1	31.602	-1.741	14.132	C.3	28	LEU536	0.000	
229	 CD2	32.378	0.519	14.896	C.3	28	LEU536	0.000	
@<TRIPOS>BOND
1 1 2 1
2 2 3 1
3 2 5 1
4 3 4 2
5 5 6 1
6 6 7 1
7 7 8 1
8 9 10 1
9 10 11 1
10 10 13 1
11 11 12 2
12 11 17 1
13 13 14 1
14 14 15 1
15 14 16 1
16 17 18 1
17 18 19 1
18 18 21 1
19 19 20 2
20 21 22 1
21 21 23 1
22 24 25 1
23 25 26 1
24 25 28 1
25 26 27 2
26 26 32 1
27 28 29 1
28 29 30 1
29 29 31 1
30 32 33 1
31 33 34 1
32 33 36 1
33 34 35 2
34 34 37 1
35 37 38 1
36 38 39 1
37 38 41 1
38 39 40 2
39 41 42 1
40 42 43 2
41 42 44 1
42 45 46 1
43 46 47 1
44 46 49 1
45 47 48 2
46 47 54 1
47 49 50 1
48 50 51 1
49 51 52 2
50 51 53 1
51 54 55 1
52 55 56 1
53 55 58 1
54 56 57 2
55 58 59 1
56 59 60 1
57 59 61 1
58 62 63 1
59 63 64 1
60 63 66 1
61 64 65 2
62 64 76 1
63 66 67 1
64 67 68 2
65 67 69 1
66 68 72 1
67 69 70 2
68 69 71 1
69 70 73 1
70 71 74 2
71 70 72 1
72 73 75 2
73 74 75 1
74 76 77 1
75 77 78 1
76 77 80 1
77 78 79 2
78 80 81 1
79 81 82 1
80 81 83 1
81 84 85 1
82 85 86 1
83 85 88 1
84 86 87 2
85 86 92 1
86 88 89 1
87 89 90 1
88 89 91 1
89 92 93 1
90 93 94 1
91 93 96 1
92 94 95 2
93 96 97 1
94 97 98 1
95 98 99 1
96 100 101 1
97 101 102 1
98 101 104 1
99 102 103 2
100 104 105 1
101 105 106 1
102 105 107 1
103 108 109 1
104 109 110 1
105 109 112 1
106 110 111 2
107 112 113 1
108 113 114 1
109 114 115 1
110 115 116 1
111 116 117 2
112 116 118 1
113 119 120 1
114 120 121 1
115 120 123 1
116 121 122 2
117 123 124 1
118 124 125 2
119 124 126 1
120 125 127 1
121 126 128 2
122 127 129 2
123 128 129 1
124 130 131 1
125 131 132 1
126 131 134 1
127 132 133 2
128 132 137 1
129 134 135 1
130 134 136 1
131 137 138 1
132 138 139 1
133 138 141 1
134 139 140 2
135 139 146 1
136 141 142 1
137 142 143 1
138 143 144 2
139 143 145 1
140 146 147 1
141 147 148 1
142 148 149 2
143 148 150 1
144 150 151 1
145 151 152 1
146 151 154 1
147 152 153 2
148 154 155 1
149 155 156 1
150 156 157 1
151 158 159 1
152 159 160 1
153 159 162 1
154 160 161 2
155 162 163 1
156 162 164 1
157 163 165 1
158 166 167 1
159 167 168 1
160 167 170 1
161 168 169 2
162 170 171 1
163 171 172 1
164 171 173 1
165 174 175 1
166 175 176 1
167 175 178 1
168 176 177 2
169 176 183 1
170 178 179 1
171 179 180 1
172 180 181 1
173 181 182 1
174 183 184 1
175 184 185 1
176 185 186 2
177 187 188 1
178 188 189 1
179 188 191 1
180 189 190 2
181 189 197 1
182 191 192 1
183 192 193 2
184 192 194 1
185 193 196 1
186 194 195 2
187 195 196 1
188 197 198 1
189 198 199 1
190 198 201 1
191 199 200 2
192 201 202 1
193 202 203 1
194 202 204 1
195 205 206 1
196 206 207 1
197 206 209 1
198 207 208 2
199 207 213 1
200 209 210 1
201 210 211 1
202 211 212 1
203 213 214 1
204 214 215 1
205 214 217 1
206 215 216 2
207 217 218 1
208 218 219 1
209 219 220 1
210 220 221 1
211 222 223 1
212 223 224 1
213 223 226 1
214 224 225 2
215 226 227 1
216 227 228 1
217 227 229 1
@<TRIPOS>SUBSTRUCTURE
1	MET343	1	RESIDUE	1 A	MET
2	LEU346	9	RESIDUE	1 A	LEU
3	THR347	17	RESIDUE	1 A	THR
4	LEU349	24	RESIDUE	1 A	LEU
5	ALA350	32	RESIDUE	1 A	ALA
6	ASP351	37	RESIDUE	1 A	ASP
7	GLU353	45	RESIDUE	1 A	GLU
8	LEU354	54	RESIDUE	1 A	LEU
9	TRP383	62	RESIDUE	1 A	TRP
10	LEU384	76	RESIDUE	1 A	LEU
11	LEU387	84	RESIDUE	1 A	LEU
12	MET388	92	RESIDUE	1 A	MET
13	LEU391	100	RESIDUE	1 A	LEU
14	ARG394	108	RESIDUE	1 A	ARG
15	PHE404	119	RESIDUE	1 A	PHE
16	VAL418	130	RESIDUE	1 A	VAL
17	GLU419	137	RESIDUE	1 A	GLU
18	GLY420	146	RESIDUE	1 A	GLY
19	MET421	150	RESIDUE	1 A	MET
20	ILE424	158	RESIDUE	1 A	ILE
21	LEU428	166	RESIDUE	1 A	LEU
22	LYS520	174	RESIDUE	1 A	LYS
23	GLY521	183	RESIDUE	1 A	GLY
24	HIS524	187	RESIDUE	1 A	HIS
25	LEU525	197	RESIDUE	1 A	LEU
26	MET528	205	RESIDUE	1 A	MET
27	LYS529	213	RESIDUE	1 A	LYS
28	LEU536	222	RESIDUE	1 A	LEU
