# created with PyMOL 2.5.0
@<TRIPOS>MOLECULE
2i0g
164 152 20              
SMALL
USER_CHARGES
@<TRIPOS>ATOM
1	   N	75.874	48.218	71.738	N.3	1	MET295	0.000	
2	  CA	77.004	47.314	71.599	C.3	1	MET295	0.000	
3	   C	77.636	47.095	72.959	C.2	1	MET295	0.000	
4	   O	78.297	46.083	73.192	O.2	1	MET295	0.000	
5	  CB	78.027	47.896	70.638	C.3	1	MET295	0.000	
6	  CG	77.480	48.030	69.250	C.3	1	MET295	0.000	
7	  SD	76.675	46.496	68.810	S.3	1	MET295	0.000	
8	  CE	78.082	45.604	68.283	C.3	1	MET295	0.000	
9	   N	75.144	44.431	74.597	N.3	2	LEU298	0.000	
10	  CA	75.385	43.126	73.995	C.3	2	LEU298	0.000	
11	   C	76.697	42.537	74.475	C.2	2	LEU298	0.000	
12	   O	76.800	41.344	74.744	O.2	2	LEU298	0.000	
13	  CB	75.385	43.245	72.475	C.3	2	LEU298	0.000	
14	  CG	74.013	43.552	71.881	C.3	2	LEU298	0.000	
15	 CD1	74.161	43.861	70.414	C.3	2	LEU298	0.000	
16	 CD2	73.081	42.379	72.111	C.3	2	LEU298	0.000	
17	   N	77.699	43.386	74.608	N.am	3	THR299	0.000	
18	  CA	78.990	42.925	75.061	C.3	3	THR299	0.000	
19	   C	78.976	42.541	76.535	C.2	3	THR299	0.000	
20	   O	79.584	41.541	76.926	O.2	3	THR299	0.000	
21	  CB	80.044	43.999	74.815	C.3	3	THR299	0.000	
22	 CG2	81.397	43.530	75.274	C.3	3	THR299	0.000	
23	 OG1	80.106	44.276	73.413	O.3	3	THR299	0.000	
24	   N	76.525	41.476	78.098	N.3	4	LEU301	0.000	
25	  CA	75.711	40.261	78.107	C.3	4	LEU301	0.000	
26	   C	76.529	39.017	77.756	C.2	4	LEU301	0.000	
27	   O	76.498	38.019	78.482	O.2	4	LEU301	0.000	
28	  CB	74.553	40.394	77.120	C.3	4	LEU301	0.000	
29	  CG	73.638	39.175	77.074	C.3	4	LEU301	0.000	
30	 CD1	73.076	38.891	78.452	C.3	4	LEU301	0.000	
31	 CD2	72.529	39.443	76.095	C.3	4	LEU301	0.000	
32	   N	77.252	39.087	76.641	N.am	5	ALA302	0.000	
33	  CA	78.083	37.979	76.188	C.3	5	ALA302	0.000	
34	   C	79.014	37.537	77.299	C.2	5	ALA302	0.000	
35	   O	79.039	36.361	77.689	O.2	5	ALA302	0.000	
36	  CB	78.887	38.392	74.984	C.3	5	ALA302	0.000	
37	   N	77.064	35.625	79.779	N.3	6	GLU305	0.000	
38	  CA	76.588	34.325	79.320	C.3	6	GLU305	0.000	
39	   C	77.720	33.324	79.169	C.2	6	GLU305	0.000	
40	   O	77.521	32.128	79.399	O.2	6	GLU305	0.000	
41	  CB	75.859	34.451	77.986	C.3	6	GLU305	0.000	
42	  CG	74.630	35.295	78.038	C.3	6	GLU305	0.000	
43	  CD	73.953	35.402	76.698	C.2	6	GLU305	0.000	
44	 OE1	73.006	34.626	76.437	O.co2	6	GLU305	0.000	
45	 OE2	74.378	36.263	75.897	O.co2	6	GLU305	0.000	
46	   N	80.500	31.913	70.195	N.3	7	MET336	0.000	
47	  CA	79.622	32.816	69.474	C.3	7	MET336	0.000	
48	   C	78.429	32.054	68.869	C.2	7	MET336	0.000	
49	   O	77.298	32.548	68.917	O.2	7	MET336	0.000	
50	  CB	80.410	33.564	68.396	C.3	7	MET336	0.000	
51	  CG	79.585	34.562	67.599	C.3	7	MET336	0.000	
52	  SD	78.916	35.895	68.610	S.3	7	MET336	0.000	
53	  CE	79.896	37.326	68.011	C.3	7	MET336	0.000	
54	   N	75.918	31.115	71.606	N.3	8	LEU339	0.000	
55	  CA	75.204	32.281	72.105	C.3	8	LEU339	0.000	
56	   C	74.084	32.571	71.123	C.2	8	LEU339	0.000	
57	   O	72.945	32.844	71.528	O.2	8	LEU339	0.000	
58	  CB	76.120	33.506	72.209	C.3	8	LEU339	0.000	
59	  CG	77.099	33.526	73.385	C.3	8	LEU339	0.000	
60	 CD1	77.683	34.923	73.536	C.3	8	LEU339	0.000	
61	 CD2	76.377	33.108	74.672	C.3	8	LEU339	0.000	
62	   N	74.407	32.500	69.831	N.am	9	MET340	0.000	
63	  CA	73.406	32.756	68.810	C.3	9	MET340	0.000	
64	   C	72.359	31.658	68.709	C.2	9	MET340	0.000	
65	   O	71.215	31.942	68.365	O.2	9	MET340	0.000	
66	  CB	74.061	32.986	67.459	C.3	9	MET340	0.000	
67	  CG	74.815	34.287	67.407	C.3	9	MET340	0.000	
68	  SD	75.707	34.503	65.864	S.3	9	MET340	0.000	
69	  CE	75.921	36.347	65.871	C.3	9	MET340	0.000	
70	   N	70.080	32.660	71.383	N.3	10	LEU343	0.000	
71	  CA	69.315	33.839	70.998	C.3	10	LEU343	0.000	
72	   C	68.140	33.473	70.092	C.2	10	LEU343	0.000	
73	   O	67.010	33.925	70.298	O.2	10	LEU343	0.000	
74	  CB	70.213	34.821	70.264	C.3	10	LEU343	0.000	
75	  CG	69.479	36.035	69.684	C.3	10	LEU343	0.000	
76	 CD1	69.091	37.017	70.807	C.3	10	LEU343	0.000	
77	 CD2	70.397	36.700	68.662	C.3	10	LEU343	0.000	
78	   N	65.304	31.538	71.946	N.3	11	ARG346	0.000	
79	  CA	64.373	32.307	72.750	C.3	11	ARG346	0.000	
80	   C	63.657	33.404	71.968	C.2	11	ARG346	0.000	
81	   O	62.758	34.059	72.493	O.2	11	ARG346	0.000	
82	  CB	65.024	32.862	74.031	C.3	11	ARG346	0.000	
83	  CG	66.467	33.239	73.953	C.3	11	ARG346	0.000	
84	  CD	66.977	33.749	75.306	C.3	11	ARG346	0.000	
85	  NE	68.115	34.620	75.059	N.pl3	11	ARG346	0.000	
86	  CZ	69.360	34.194	74.873	C.cat	11	ARG346	0.000	
87	 NH1	69.627	32.896	74.932	N.pl3	11	ARG346	0.000	
88	 NH2	70.334	35.062	74.586	N.pl3	11	ARG346	0.000	
89	   N	67.311	38.926	73.440	N.3	12	PHE356	0.000	
90	  CA	68.681	38.694	73.907	C.3	12	PHE356	0.000	
91	   C	68.730	38.317	75.376	C.2	12	PHE356	0.000	
92	   O	69.416	37.384	75.772	O.2	12	PHE356	0.000	
93	  CB	69.542	39.941	73.695	C.3	12	PHE356	0.000	
94	  CG	70.067	40.083	72.303	C.2	12	PHE356	0.000	
95	 CD1	71.154	39.338	71.877	C.2	12	PHE356	0.000	
96	 CD2	69.449	40.936	71.405	C.2	12	PHE356	0.000	
97	 CE1	71.611	39.438	70.585	C.2	12	PHE356	0.000	
98	 CE2	69.903	41.040	70.107	C.2	12	PHE356	0.000	
99	  CZ	70.986	40.288	69.699	C.2	12	PHE356	0.000	
100	   N	75.538	45.945	61.862	N.3	13	ILE373	0.000	
101	  CA	74.727	45.083	62.694	C.3	13	ILE373	0.000	
102	   C	73.389	44.720	62.078	C.2	13	ILE373	0.000	
103	   O	72.902	43.604	62.268	O.2	13	ILE373	0.000	
104	  CB	74.519	45.711	64.102	C.3	13	ILE373	0.000	
105	 CG1	75.839	45.658	64.884	C.3	13	ILE373	0.000	
106	 CG2	73.412	44.958	64.871	C.3	13	ILE373	0.000	
107	 CD1	76.347	44.260	65.145	C.3	13	ILE373	0.000	
108	   N	73.693	41.488	60.223	N.3	14	ILE376	0.000	
109	  CA	73.735	40.333	61.103	C.3	14	ILE376	0.000	
110	   C	72.384	40.021	61.742	C.2	14	ILE376	0.000	
111	   O	72.023	38.855	61.889	O.2	14	ILE376	0.000	
112	  CB	74.777	40.543	62.196	C.3	14	ILE376	0.000	
113	 CG1	76.154	40.687	61.551	C.3	14	ILE376	0.000	
114	 CG2	74.750	39.389	63.186	C.3	14	ILE376	0.000	
115	 CD1	77.252	40.985	62.538	C.3	14	ILE376	0.000	
116	   N	71.643	41.053	62.134	N.am	15	PHE377	0.000	
117	  CA	70.326	40.845	62.726	C.3	15	PHE377	0.000	
118	   C	69.436	40.144	61.711	C.2	15	PHE377	0.000	
119	   O	68.668	39.243	62.052	O.2	15	PHE377	0.000	
120	  CB	69.691	42.180	63.122	C.3	15	PHE377	0.000	
121	  CG	70.073	42.652	64.501	C.2	15	PHE377	0.000	
122	 CD1	71.228	42.191	65.117	C.2	15	PHE377	0.000	
123	 CD2	69.285	43.559	65.177	C.2	15	PHE377	0.000	
124	 CE1	71.587	42.623	66.382	C.2	15	PHE377	0.000	
125	 CE2	69.642	43.995	66.441	C.2	15	PHE377	0.000	
126	  CZ	70.794	43.525	67.042	C.2	15	PHE377	0.000	
127	   N	70.184	36.408	61.657	N.3	16	LEU380	0.000	
128	  CA	69.650	35.768	62.843	C.3	16	LEU380	0.000	
129	   C	68.136	35.653	62.759	C.2	16	LEU380	0.000	
130	   O	67.570	34.613	63.089	O.2	16	LEU380	0.000	
131	  CB	70.055	36.557	64.094	C.3	16	LEU380	0.000	
132	  CG	71.562	36.696	64.350	C.3	16	LEU380	0.000	
133	 CD1	71.791	37.657	65.503	C.3	16	LEU380	0.000	
134	 CD2	72.172	35.350	64.660	C.3	16	LEU380	0.000	
135	   N	79.294	37.735	63.072	N.3	17	GLY472	0.000	
136	  CA	79.302	38.360	64.383	C.3	17	GLY472	0.000	
137	   C	80.710	38.546	64.912	C.2	17	GLY472	0.000	
138	   O	81.006	39.561	65.531	O.2	17	GLY472	0.000	
139	   N	82.560	41.319	62.904	N.3	18	HIS475	0.000	
140	  CA	82.091	42.610	63.379	C.3	18	HIS475	0.000	
141	   C	82.649	42.987	64.749	C.2	18	HIS475	0.000	
142	   O	83.077	44.126	64.964	O.2	18	HIS475	0.000	
143	  CB	80.564	42.631	63.423	C.3	18	HIS475	0.000	
144	  CG	79.994	43.971	63.770	C.2	18	HIS475	0.000	
145	 CD2	79.357	44.892	63.012	C.2	18	HIS475	0.000	
146	 ND1	80.081	44.509	65.038	N.2	18	HIS475	0.000	
147	 CE1	79.520	45.703	65.044	C.2	18	HIS475	0.000	
148	 NE2	79.073	45.963	63.829	N.pl3	18	HIS475	0.000	
149	   N	82.639	42.035	65.673	N.am	19	LEU476	0.000	
150	  CA	83.142	42.268	67.020	C.3	19	LEU476	0.000	
151	   C	84.616	42.654	67.030	C.2	19	LEU476	0.000	
152	   O	85.051	43.470	67.844	O.2	19	LEU476	0.000	
153	  CB	82.943	41.018	67.879	C.3	19	LEU476	0.000	
154	  CG	83.616	41.068	69.252	C.3	19	LEU476	0.000	
155	 CD1	82.940	42.124	70.075	C.3	19	LEU476	0.000	
156	 CD2	83.526	39.736	69.949	C.3	19	LEU476	0.000	
157	   N	85.642	46.215	65.948	N.3	20	MET479	0.000	
158	  CA	85.165	47.250	66.841	C.3	20	MET479	0.000	
159	   C	86.171	47.999	67.684	C.2	20	MET479	0.000	
160	   O	87.123	47.432	68.226	O.2	20	MET479	0.000	
161	  CB	84.052	46.697	67.734	C.3	20	MET479	0.000	
162	  CG	82.710	46.644	67.029	C.3	20	MET479	0.000	
163	  SD	82.240	48.259	66.335	S.3	20	MET479	0.000	
164	  CE	81.809	47.835	64.595	C.3	20	MET479	0.000	
@<TRIPOS>BOND
1 1 2 1
2 2 3 1
3 2 5 1
4 3 4 2
5 5 6 1
6 6 7 1
7 7 8 1
8 9 10 1
9 10 11 1
10 10 13 1
11 11 12 2
12 11 17 1
13 13 14 1
14 14 15 1
15 14 16 1
16 17 18 1
17 18 19 1
18 18 21 1
19 19 20 2
20 21 22 1
21 21 23 1
22 24 25 1
23 25 26 1
24 25 28 1
25 26 27 2
26 26 32 1
27 28 29 1
28 29 30 1
29 29 31 1
30 32 33 1
31 33 34 1
32 33 36 1
33 34 35 2
34 37 38 1
35 38 39 1
36 38 41 1
37 39 40 2
38 41 42 1
39 42 43 1
40 43 44 2
41 43 45 1
42 46 47 1
43 47 48 1
44 47 50 1
45 48 49 2
46 50 51 1
47 51 52 1
48 52 53 1
49 54 55 1
50 55 56 1
51 55 58 1
52 56 57 2
53 56 62 1
54 58 59 1
55 59 60 1
56 59 61 1
57 62 63 1
58 63 64 1
59 63 66 1
60 64 65 2
61 66 67 1
62 67 68 1
63 68 69 1
64 70 71 1
65 71 72 1
66 71 74 1
67 72 73 2
68 74 75 1
69 75 76 1
70 75 77 1
71 78 79 1
72 79 80 1
73 79 82 1
74 80 81 2
75 82 83 1
76 83 84 1
77 84 85 1
78 85 86 1
79 86 87 2
80 86 88 1
81 89 90 1
82 90 91 1
83 90 93 1
84 91 92 2
85 93 94 1
86 94 95 2
87 94 96 1
88 95 97 1
89 96 98 2
90 97 99 2
91 98 99 1
92 100 101 1
93 101 102 1
94 101 104 1
95 102 103 2
96 104 105 1
97 104 106 1
98 105 107 1
99 108 109 1
100 109 110 1
101 109 112 1
102 110 111 2
103 110 116 1
104 112 113 1
105 112 114 1
106 113 115 1
107 116 117 1
108 117 118 1
109 117 120 1
110 118 119 2
111 120 121 1
112 121 122 2
113 121 123 1
114 122 124 1
115 123 125 2
116 124 126 2
117 125 126 1
118 127 128 1
119 128 129 1
120 128 131 1
121 129 130 2
122 131 132 1
123 132 133 1
124 132 134 1
125 135 136 1
126 136 137 1
127 137 138 2
128 139 140 1
129 140 141 1
130 140 143 1
131 141 142 2
132 141 149 1
133 143 144 1
134 144 145 2
135 144 146 1
136 145 148 1
137 146 147 2
138 147 148 1
139 149 150 1
140 150 151 1
141 150 153 1
142 151 152 2
143 153 154 1
144 154 155 1
145 154 156 1
146 157 158 1
147 158 159 1
148 158 161 1
149 159 160 2
150 161 162 1
151 162 163 1
152 163 164 1
@<TRIPOS>SUBSTRUCTURE
1	MET295	1	RESIDUE	1 A	MET
2	LEU298	9	RESIDUE	1 A	LEU
3	THR299	17	RESIDUE	1 A	THR
4	LEU301	24	RESIDUE	1 A	LEU
5	ALA302	32	RESIDUE	1 A	ALA
6	GLU305	37	RESIDUE	1 A	GLU
7	MET336	46	RESIDUE	1 A	MET
8	LEU339	54	RESIDUE	1 A	LEU
9	MET340	62	RESIDUE	1 A	MET
10	LEU343	70	RESIDUE	1 A	LEU
11	ARG346	78	RESIDUE	1 A	ARG
12	PHE356	89	RESIDUE	1 A	PHE
13	ILE373	100	RESIDUE	1 A	ILE
14	ILE376	108	RESIDUE	1 A	ILE
15	PHE377	116	RESIDUE	1 A	PHE
16	LEU380	127	RESIDUE	1 A	LEU
17	GLY472	135	RESIDUE	1 A	GLY
18	HIS475	139	RESIDUE	1 A	HIS
19	LEU476	149	RESIDUE	1 A	LEU
20	MET479	157	RESIDUE	1 A	MET
