# created with PyMOL 2.5.0
@<TRIPOS>MOLECULE
2iok
206 195 25              
SMALL
USER_CHARGES
@<TRIPOS>ATOM
1	   N	15.971	41.657	58.200	N.3	1	MET343	0.000	
2	  CA	15.585	40.270	58.435	C.3	1	MET343	0.000	
3	   C	14.082	40.062	58.263	C.2	1	MET343	0.000	
4	   O	13.659	39.455	57.276	O.2	1	MET343	0.000	
5	  CB	16.001	39.781	59.827	C.3	1	MET343	0.000	
6	  CG	16.210	38.267	59.840	C.3	1	MET343	0.000	
7	  SD	17.389	37.740	58.574	S.3	1	MET343	0.000	
8	  CE	18.941	38.160	59.386	C.3	1	MET343	0.000	
9	   N	12.819	40.489	55.167	N.3	2	LEU346	0.000	
10	  CA	13.228	39.374	54.332	C.3	2	LEU346	0.000	
11	   C	12.423	38.110	54.635	C.2	2	LEU346	0.000	
12	   O	11.876	37.493	53.724	O.2	2	LEU346	0.000	
13	  CB	14.715	39.081	54.543	C.3	2	LEU346	0.000	
14	  CG	15.683	39.906	53.701	C.3	2	LEU346	0.000	
15	 CD1	17.101	39.357	53.806	C.3	2	LEU346	0.000	
16	 CD2	15.247	39.945	52.244	C.3	2	LEU346	0.000	
17	   N	12.394	37.785	55.915	N.am	3	THR347	0.000	
18	  CA	11.654	36.675	56.491	C.3	3	THR347	0.000	
19	   C	10.182	36.729	56.085	C.2	3	THR347	0.000	
20	   O	9.654	35.783	55.501	O.2	3	THR347	0.000	
21	  CB	11.771	36.685	58.024	C.3	3	THR347	0.000	
22	 CG2	11.012	35.529	58.650	C.3	3	THR347	0.000	
23	 OG1	13.154	36.516	58.378	O.3	3	THR347	0.000	
24	   N	8.646	38.273	53.688	N.3	4	LEU349	0.000	
25	  CA	8.467	38.179	52.251	C.3	4	LEU349	0.000	
26	   C	8.766	36.815	51.659	C.2	4	LEU349	0.000	
27	   O	8.221	36.458	50.612	O.2	4	LEU349	0.000	
28	  CB	9.365	39.249	51.612	C.3	4	LEU349	0.000	
29	  CG	9.577	39.142	50.106	C.3	4	LEU349	0.000	
30	 CD1	8.617	40.048	49.350	C.3	4	LEU349	0.000	
31	 CD2	11.025	39.478	49.767	C.3	4	LEU349	0.000	
32	   N	9.630	36.018	52.286	N.am	5	ALA350	0.000	
33	  CA	9.917	34.715	51.673	C.3	5	ALA350	0.000	
34	   C	8.743	33.765	51.924	C.2	5	ALA350	0.000	
35	   O	8.263	33.149	50.968	O.2	5	ALA350	0.000	
36	  CB	11.229	34.154	52.179	C.3	5	ALA350	0.000	
37	   N	6.170	33.906	49.833	N.3	6	GLU353	0.000	
38	  CA	6.609	33.531	48.483	C.3	6	GLU353	0.000	
39	   C	6.684	32.008	48.425	C.2	6	GLU353	0.000	
40	   O	6.508	31.405	47.366	O.2	6	GLU353	0.000	
41	  CB	7.936	34.190	48.121	C.3	6	GLU353	0.000	
42	  CG	7.902	34.958	46.808	C.3	6	GLU353	0.000	
43	  CD	9.268	35.415	46.341	C.2	6	GLU353	0.000	
44	 OE1	10.077	35.880	47.176	O.co2	6	GLU353	0.000	
45	 OE2	9.530	35.309	45.120	O.co2	6	GLU353	0.000	
46	   N	14.303	25.147	47.957	N.3	7	TRP383	0.000	
47	  CA	13.463	26.340	48.127	C.3	7	TRP383	0.000	
48	   C	14.308	27.601	47.965	C.2	7	TRP383	0.000	
49	   O	14.031	28.373	47.042	O.2	7	TRP383	0.000	
50	  CB	12.726	26.368	49.439	C.3	7	TRP383	0.000	
51	  CG	13.388	26.348	50.755	C.2	7	TRP383	0.000	
52	 CD1	13.681	25.242	51.503	C.2	7	TRP383	0.000	
53	 CD2	13.849	27.466	51.531	C.2	7	TRP383	0.000	
54	 CE2	14.407	26.960	52.718	C.2	7	TRP383	0.000	
55	 CE3	13.843	28.851	51.327	C.2	7	TRP383	0.000	
56	 NE1	14.292	25.592	52.683	N.pl3	7	TRP383	0.000	
57	 CZ2	14.955	27.790	53.694	C.2	7	TRP383	0.000	
58	 CZ3	14.384	29.668	52.296	C.2	7	TRP383	0.000	
59	 CH2	14.933	29.139	53.465	C.2	7	TRP383	0.000	
60	   N	15.309	27.790	48.810	N.am	8	LEU384	0.000	
61	  CA	16.204	28.934	48.709	C.3	8	LEU384	0.000	
62	   C	16.728	29.158	47.295	C.2	8	LEU384	0.000	
63	   O	16.994	30.303	46.915	O.2	8	LEU384	0.000	
64	  CB	17.387	28.791	49.678	C.3	8	LEU384	0.000	
65	  CG	18.174	30.087	49.911	C.3	8	LEU384	0.000	
66	 CD1	17.221	31.218	50.286	C.3	8	LEU384	0.000	
67	 CD2	19.245	29.896	50.972	C.3	8	LEU384	0.000	
68	   N	13.838	30.913	44.999	N.3	9	LEU387	0.000	
69	  CA	13.742	32.301	45.408	C.3	9	LEU387	0.000	
70	   C	14.851	33.132	44.765	C.2	9	LEU387	0.000	
71	   O	14.579	34.094	44.053	O.2	9	LEU387	0.000	
72	  CB	13.835	32.429	46.925	C.3	9	LEU387	0.000	
73	  CG	12.642	31.968	47.754	C.3	9	LEU387	0.000	
74	 CD1	12.813	32.351	49.214	C.3	9	LEU387	0.000	
75	 CD2	11.332	32.537	47.229	C.3	9	LEU387	0.000	
76	   N	16.082	32.732	45.036	N.am	10	MET388	0.000	
77	  CA	17.298	33.354	44.541	C.3	10	MET388	0.000	
78	   C	17.302	33.564	43.037	C.2	10	MET388	0.000	
79	   O	17.616	34.670	42.583	O.2	10	MET388	0.000	
80	  CB	18.514	32.497	44.900	C.3	10	MET388	0.000	
81	  CG	18.884	32.545	46.381	C.3	10	MET388	0.000	
82	  SD	20.512	31.791	46.603	S.3	10	MET388	0.000	
83	  CE	20.685	31.887	48.376	C.3	10	MET388	0.000	
84	   N	14.491	36.184	42.318	N.3	11	LEU391	0.000	
85	  CA	14.962	37.507	42.701	C.3	11	LEU391	0.000	
86	   C	15.942	38.052	41.663	C.2	11	LEU391	0.000	
87	   O	15.748	39.117	41.083	O.2	11	LEU391	0.000	
88	  CB	15.601	37.429	44.078	C.3	11	LEU391	0.000	
89	  CG	16.623	38.470	44.509	C.3	11	LEU391	0.000	
90	 CD1	16.045	39.876	44.468	C.3	11	LEU391	0.000	
91	 CD2	17.116	38.154	45.915	C.3	11	LEU391	0.000	
92	   N	14.511	39.263	38.483	N.3	12	ARG394	0.000	
93	  CA	13.786	40.534	38.390	C.3	12	ARG394	0.000	
94	   C	14.725	41.708	38.673	C.2	12	ARG394	0.000	
95	   O	14.430	42.848	38.330	O.2	12	ARG394	0.000	
96	  CB	12.587	40.561	39.336	C.3	12	ARG394	0.000	
97	  CG	12.786	39.808	40.639	C.3	12	ARG394	0.000	
98	  CD	11.479	39.682	41.408	C.3	12	ARG394	0.000	
99	  NE	11.714	39.688	42.852	N.pl3	12	ARG394	0.000	
100	  CZ	11.769	38.579	43.577	C.cat	12	ARG394	0.000	
101	 NH1	11.607	37.402	42.989	N.pl3	12	ARG394	0.000	
102	 NH2	11.985	38.643	44.882	N.pl3	12	ARG394	0.000	
103	   N	13.809	42.671	45.487	N.3	13	PHE404	0.000	
104	  CA	13.031	41.724	46.272	C.3	13	PHE404	0.000	
105	   C	11.555	41.803	45.896	C.2	13	PHE404	0.000	
106	   O	11.008	40.908	45.262	O.2	13	PHE404	0.000	
107	  CB	13.240	42.023	47.758	C.3	13	PHE404	0.000	
108	  CG	14.504	41.375	48.305	C.2	13	PHE404	0.000	
109	 CD1	14.515	40.006	48.528	C.2	13	PHE404	0.000	
110	 CD2	15.638	42.109	48.586	C.2	13	PHE404	0.000	
111	 CE1	15.640	39.378	49.025	C.2	13	PHE404	0.000	
112	 CE2	16.769	41.491	49.082	C.2	13	PHE404	0.000	
113	  CZ	16.770	40.127	49.306	C.2	13	PHE404	0.000	
114	   N	22.792	43.719	57.753	N.3	14	VAL418	0.000	
115	  CA	22.705	42.318	58.175	C.3	14	VAL418	0.000	
116	   C	24.057	41.646	57.907	C.2	14	VAL418	0.000	
117	   O	24.833	41.942	56.993	O.2	14	VAL418	0.000	
118	  CB	21.534	41.563	57.535	C.3	14	VAL418	0.000	
119	 CG1	21.465	40.114	58.001	C.3	14	VAL418	0.000	
120	 CG2	20.226	42.275	57.874	C.3	14	VAL418	0.000	
121	   N	24.352	40.703	58.785	N.am	15	GLU419	0.000	
122	  CA	25.642	40.142	59.098	C.3	15	GLU419	0.000	
123	   C	26.144	39.023	58.192	C.2	15	GLU419	0.000	
124	   O	26.491	37.937	58.700	O.2	15	GLU419	0.000	
125	  CB	25.529	39.588	60.525	C.3	15	GLU419	0.000	
126	  CG	26.745	39.868	61.399	C.3	15	GLU419	0.000	
127	  CD	26.373	39.918	62.870	C.2	15	GLU419	0.000	
128	 OE1	25.889	38.872	63.366	O.co2	15	GLU419	0.000	
129	 OE2	26.556	40.973	63.517	O.co2	15	GLU419	0.000	
130	   N	26.185	39.288	56.877	N.am	16	GLY420	0.000	
131	  CA	26.663	38.266	55.965	C.3	16	GLY420	0.000	
132	   C	25.999	38.350	54.608	C.2	16	GLY420	0.000	
133	   O	26.409	37.658	53.650	O.2	16	GLY420	0.000	
134	   N	24.956	39.187	54.516	N.am	17	MET421	0.000	
135	  CA	24.186	39.365	53.294	C.3	17	MET421	0.000	
136	   C	25.003	39.933	52.143	C.2	17	MET421	0.000	
137	   O	24.666	39.744	50.971	O.2	17	MET421	0.000	
138	  CB	22.998	40.302	53.553	C.3	17	MET421	0.000	
139	  CG	22.160	39.923	54.763	C.3	17	MET421	0.000	
140	  SD	20.402	39.970	54.335	S.3	17	MET421	0.000	
141	  CE	20.506	39.494	52.611	C.3	17	MET421	0.000	
142	   N	26.451	37.082	49.928	N.3	18	ILE424	0.000	
143	  CA	25.332	36.484	49.204	C.3	18	ILE424	0.000	
144	   C	24.746	37.490	48.224	C.2	18	ILE424	0.000	
145	   O	24.363	37.166	47.097	O.2	18	ILE424	0.000	
146	  CB	24.236	35.994	50.167	C.3	18	ILE424	0.000	
147	 CG1	24.767	35.515	51.522	C.3	18	ILE424	0.000	
148	 CG2	23.386	34.908	49.519	C.3	18	ILE424	0.000	
149	 CD1	24.149	34.207	51.965	C.3	18	ILE424	0.000	
150	   N	24.708	38.747	48.684	N.am	19	PHE425	0.000	
151	  CA	24.293	39.851	47.825	C.3	19	PHE425	0.000	
152	   C	25.157	39.890	46.575	C.2	19	PHE425	0.000	
153	   O	24.702	39.802	45.434	O.2	19	PHE425	0.000	
154	  CB	24.399	41.170	48.577	C.3	19	PHE425	0.000	
155	  CG	23.083	41.800	48.999	C.2	19	PHE425	0.000	
156	 CD1	22.367	41.299	50.073	C.2	19	PHE425	0.000	
157	 CD2	22.575	42.895	48.316	C.2	19	PHE425	0.000	
158	 CE1	21.177	41.889	50.458	C.2	19	PHE425	0.000	
159	 CE2	21.384	43.483	48.695	C.2	19	PHE425	0.000	
160	  CZ	20.682	42.984	49.777	C.2	19	PHE425	0.000	
161	   N	24.798	37.053	44.425	N.3	20	LEU428	0.000	
162	  CA	23.443	37.226	43.893	C.3	20	LEU428	0.000	
163	   C	23.437	38.257	42.775	C.2	20	LEU428	0.000	
164	   O	22.939	38.022	41.675	O.2	20	LEU428	0.000	
165	  CB	22.489	37.616	45.024	C.3	20	LEU428	0.000	
166	  CG	21.905	36.474	45.861	C.3	20	LEU428	0.000	
167	 CD1	20.965	37.019	46.922	C.3	20	LEU428	0.000	
168	 CD2	21.185	35.464	44.985	C.3	20	LEU428	0.000	
169	   N	25.286	29.313	46.203	N.3	21	MET517	0.000	
170	  CA	24.824	30.419	47.049	C.3	21	MET517	0.000	
171	   C	23.820	29.969	48.096	C.2	21	MET517	0.000	
172	   O	23.831	30.429	49.238	O.2	21	MET517	0.000	
173	  CB	24.148	31.516	46.236	C.3	21	MET517	0.000	
174	  CG	24.957	32.104	45.101	C.3	21	MET517	0.000	
175	  SD	24.146	33.568	44.464	S.3	21	MET517	0.000	
176	  CE	23.862	33.144	42.758	C.3	21	MET517	0.000	
177	   N	23.890	30.567	52.127	N.3	22	GLY521	0.000	
178	  CA	22.742	31.091	52.851	C.3	22	GLY521	0.000	
179	   C	22.264	30.182	53.962	C.2	22	GLY521	0.000	
180	   O	22.091	30.616	55.106	O.2	22	GLY521	0.000	
181	   N	23.941	30.378	57.064	N.3	23	HIS524	0.000	
182	  CA	23.628	31.532	57.907	C.3	23	HIS524	0.000	
183	   C	22.180	31.412	58.371	C.2	23	HIS524	0.000	
184	   O	21.840	31.766	59.499	O.2	23	HIS524	0.000	
185	  CB	23.792	32.894	57.255	C.3	23	HIS524	0.000	
186	  CG	25.018	33.134	56.451	C.2	23	HIS524	0.000	
187	 CD2	25.205	33.699	55.241	C.2	23	HIS524	0.000	
188	 ND1	26.267	32.730	56.868	N.2	23	HIS524	0.000	
189	 CE1	27.165	33.058	55.954	C.2	23	HIS524	0.000	
190	 NE2	26.548	33.650	54.953	N.pl3	23	HIS524	0.000	
191	   N	21.294	30.899	57.512	N.am	24	LEU525	0.000	
192	  CA	19.893	30.783	57.923	C.3	24	LEU525	0.000	
193	   C	19.750	29.872	59.136	C.2	24	LEU525	0.000	
194	   O	18.823	30.037	59.927	O.2	24	LEU525	0.000	
195	  CB	19.036	30.290	56.755	C.3	24	LEU525	0.000	
196	  CG	18.172	31.407	56.142	C.3	24	LEU525	0.000	
197	 CD1	17.325	30.882	55.009	C.3	24	LEU525	0.000	
198	 CD2	17.338	32.028	57.255	C.3	24	LEU525	0.000	
199	   N	20.936	31.257	62.650	N.3	25	MET528	0.000	
200	  CA	19.846	31.873	63.385	C.3	25	MET528	0.000	
201	   C	18.868	30.806	63.878	C.2	25	MET528	0.000	
202	   O	17.713	30.768	63.458	O.2	25	MET528	0.000	
203	  CB	19.127	32.907	62.519	C.3	25	MET528	0.000	
204	  CG	19.868	34.228	62.402	C.3	25	MET528	0.000	
205	  SD	20.390	34.596	60.717	S.3	25	MET528	0.000	
206	  CE	21.832	35.622	61.019	C.3	25	MET528	0.000	
@<TRIPOS>BOND
1 1 2 1
2 2 3 1
3 2 5 1
4 3 4 2
5 5 6 1
6 6 7 1
7 7 8 1
8 9 10 1
9 10 11 1
10 10 13 1
11 11 12 2
12 11 17 1
13 13 14 1
14 14 15 1
15 14 16 1
16 17 18 1
17 18 19 1
18 18 21 1
19 19 20 2
20 21 22 1
21 21 23 1
22 24 25 1
23 25 26 1
24 25 28 1
25 26 27 2
26 26 32 1
27 28 29 1
28 29 30 1
29 29 31 1
30 32 33 1
31 33 34 1
32 33 36 1
33 34 35 2
34 37 38 1
35 38 39 1
36 38 41 1
37 39 40 2
38 41 42 1
39 42 43 1
40 43 44 2
41 43 45 1
42 46 47 1
43 47 48 1
44 47 50 1
45 48 49 2
46 48 60 1
47 50 51 1
48 51 52 2
49 51 53 1
50 52 56 1
51 53 54 2
52 53 55 1
53 54 57 1
54 55 58 2
55 54 56 1
56 57 59 2
57 58 59 1
58 60 61 1
59 61 62 1
60 61 64 1
61 62 63 2
62 64 65 1
63 65 66 1
64 65 67 1
65 68 69 1
66 69 70 1
67 69 72 1
68 70 71 2
69 70 76 1
70 72 73 1
71 73 74 1
72 73 75 1
73 76 77 1
74 77 78 1
75 77 80 1
76 78 79 2
77 80 81 1
78 81 82 1
79 82 83 1
80 84 85 1
81 85 86 1
82 85 88 1
83 86 87 2
84 88 89 1
85 89 90 1
86 89 91 1
87 92 93 1
88 93 94 1
89 93 96 1
90 94 95 2
91 96 97 1
92 97 98 1
93 98 99 1
94 99 100 1
95 100 101 2
96 100 102 1
97 103 104 1
98 104 105 1
99 104 107 1
100 105 106 2
101 107 108 1
102 108 109 2
103 108 110 1
104 109 111 1
105 110 112 2
106 111 113 2
107 112 113 1
108 114 115 1
109 115 116 1
110 115 118 1
111 116 117 2
112 116 121 1
113 118 119 1
114 118 120 1
115 121 122 1
116 122 123 1
117 122 125 1
118 123 124 2
119 123 130 1
120 125 126 1
121 126 127 1
122 127 128 2
123 127 129 1
124 130 131 1
125 131 132 1
126 132 133 2
127 132 134 1
128 134 135 1
129 135 136 1
130 135 138 1
131 136 137 2
132 138 139 1
133 139 140 1
134 140 141 1
135 142 143 1
136 143 144 1
137 143 146 1
138 144 145 2
139 144 150 1
140 146 147 1
141 146 148 1
142 147 149 1
143 150 151 1
144 151 152 1
145 151 154 1
146 152 153 2
147 154 155 1
148 155 156 2
149 155 157 1
150 156 158 1
151 157 159 2
152 158 160 2
153 159 160 1
154 161 162 1
155 162 163 1
156 162 165 1
157 163 164 2
158 165 166 1
159 166 167 1
160 166 168 1
161 169 170 1
162 170 171 1
163 170 173 1
164 171 172 2
165 173 174 1
166 174 175 1
167 175 176 1
168 177 178 1
169 178 179 1
170 179 180 2
171 181 182 1
172 182 183 1
173 182 185 1
174 183 184 2
175 183 191 1
176 185 186 1
177 186 187 2
178 186 188 1
179 187 190 1
180 188 189 2
181 189 190 1
182 191 192 1
183 192 193 1
184 192 195 1
185 193 194 2
186 195 196 1
187 196 197 1
188 196 198 1
189 199 200 1
190 200 201 1
191 200 203 1
192 201 202 2
193 203 204 1
194 204 205 1
195 205 206 1
@<TRIPOS>SUBSTRUCTURE
1	MET343	1	RESIDUE	1 A	MET
2	LEU346	9	RESIDUE	1 A	LEU
3	THR347	17	RESIDUE	1 A	THR
4	LEU349	24	RESIDUE	1 A	LEU
5	ALA350	32	RESIDUE	1 A	ALA
6	GLU353	37	RESIDUE	1 A	GLU
7	TRP383	46	RESIDUE	1 A	TRP
8	LEU384	60	RESIDUE	1 A	LEU
9	LEU387	68	RESIDUE	1 A	LEU
10	MET388	76	RESIDUE	1 A	MET
11	LEU391	84	RESIDUE	1 A	LEU
12	ARG394	92	RESIDUE	1 A	ARG
13	PHE404	103	RESIDUE	1 A	PHE
14	VAL418	114	RESIDUE	1 A	VAL
15	GLU419	121	RESIDUE	1 A	GLU
16	GLY420	130	RESIDUE	1 A	GLY
17	MET421	134	RESIDUE	1 A	MET
18	ILE424	142	RESIDUE	1 A	ILE
19	PHE425	150	RESIDUE	1 A	PHE
20	LEU428	161	RESIDUE	1 A	LEU
21	MET517	169	RESIDUE	1 A	MET
22	GLY521	177	RESIDUE	1 A	GLY
23	HIS524	181	RESIDUE	1 A	HIS
24	LEU525	191	RESIDUE	1 A	LEU
25	MET528	199	RESIDUE	1 A	MET
