# created with PyMOL 2.5.0
@<TRIPOS>MOLECULE
2j7x
153 140 19              
SMALL
USER_CHARGES
@<TRIPOS>ATOM
1	   N	48.749	21.900	78.878	N.3	1	MET250	0.000	
2	  CA	47.674	22.895	78.881	C.3	1	MET250	0.000	
3	   C	47.232	23.284	80.298	C.2	1	MET250	0.000	
4	   O	46.881	24.434	80.549	O.2	1	MET250	0.000	
5	  CB	46.473	22.407	78.060	C.3	1	MET250	0.000	
6	  CG	46.718	22.398	76.553	C.3	1	MET250	0.000	
7	  SD	47.107	24.029	75.910	S.3	1	MET250	0.000	
8	  CE	45.640	24.942	76.385	C.3	1	MET250	0.000	
9	   N	49.896	25.650	81.595	N.3	2	LEU253	0.000	
10	  CA	49.816	26.946	80.925	C.3	2	LEU253	0.000	
11	   C	48.557	27.731	81.310	C.2	2	LEU253	0.000	
12	   O	48.594	28.939	81.433	O.2	2	LEU253	0.000	
13	  CB	49.890	26.757	79.410	C.3	2	LEU253	0.000	
14	  CG	51.199	26.289	78.789	C.3	2	LEU253	0.000	
15	 CD1	50.983	26.061	77.297	C.3	2	LEU253	0.000	
16	 CD2	52.319	27.298	79.024	C.3	2	LEU253	0.000	
17	   N	47.432	27.050	81.457	N.am	3	THR254	0.000	
18	  CA	46.186	27.712	81.852	C.3	3	THR254	0.000	
19	   C	46.206	28.121	83.336	C.2	3	THR254	0.000	
20	   O	45.768	29.223	83.682	O.2	3	THR254	0.000	
21	  CB	44.945	26.863	81.473	C.3	3	THR254	0.000	
22	 CG2	44.816	26.756	79.918	C.3	3	THR254	0.000	
23	 OG1	45.061	25.553	82.028	O.3	3	THR254	0.000	
24	   N	48.924	28.914	85.007	N.3	4	LEU256	0.000	
25	  CA	49.803	30.064	84.964	C.3	4	LEU256	0.000	
26	   C	49.058	31.307	84.493	C.2	4	LEU256	0.000	
27	   O	49.141	32.366	85.130	O.2	4	LEU256	0.000	
28	  CB	50.994	29.785	84.028	C.3	4	LEU256	0.000	
29	  CG	52.058	30.877	83.881	C.3	4	LEU256	0.000	
30	 CD1	52.721	31.242	85.211	C.3	4	LEU256	0.000	
31	 CD2	53.077	30.399	82.870	C.3	4	LEU256	0.000	
32	   N	48.318	31.179	83.391	N.am	5	ALA257	0.000	
33	  CA	47.632	32.334	82.814	C.3	5	ALA257	0.000	
34	   C	46.641	32.941	83.817	C.2	5	ALA257	0.000	
35	   O	46.551	34.158	83.978	O.2	5	ALA257	0.000	
36	  CB	46.911	31.938	81.537	C.3	5	ALA257	0.000	
37	   N	48.438	34.908	86.526	N.3	6	GLU260	0.000	
38	  CA	48.909	36.150	85.955	C.3	6	GLU260	0.000	
39	   C	47.805	37.155	85.756	C.2	6	GLU260	0.000	
40	   O	47.996	38.342	85.951	O.2	6	GLU260	0.000	
41	  CB	49.618	35.900	84.637	C.3	6	GLU260	0.000	
42	  CG	50.949	35.195	84.801	C.3	6	GLU260	0.000	
43	  CD	51.670	35.105	83.478	C.2	6	GLU260	0.000	
44	 OE1	51.444	34.124	82.773	O.co2	6	GLU260	0.000	
45	 OE2	52.426	36.027	83.134	O.co2	6	GLU260	0.000	
46	   N	45.302	38.826	76.602	N.3	7	MET291	0.000	
47	  CA	46.164	37.796	75.988	C.3	7	MET291	0.000	
48	   C	47.406	38.416	75.344	C.2	7	MET291	0.000	
49	   O	48.494	37.864	75.453	O.2	7	MET291	0.000	
50	  CB	45.366	36.980	74.975	C.3	7	MET291	0.000	
51	  CG	46.149	35.889	74.251	C.3	7	MET291	0.000	
52	  SD	46.546	34.480	75.297	S.3	7	MET291	0.000	
53	  CE	44.996	33.587	75.224	C.3	7	MET291	0.000	
54	   N	49.695	39.082	78.266	N.3	8	LEU294	0.000	
55	  CA	50.374	37.823	78.654	C.3	8	LEU294	0.000	
56	   C	51.550	37.491	77.706	C.2	8	LEU294	0.000	
57	   O	52.669	37.117	78.149	O.2	8	LEU294	0.000	
58	  CB	49.379	36.660	78.689	C.3	8	LEU294	0.000	
59	  CG	48.398	36.572	79.880	C.3	8	LEU294	0.000	
60	 CD1	47.605	35.268	79.799	C.3	8	LEU294	0.000	
61	 CD2	49.067	36.725	81.250	C.3	8	LEU294	0.000	
62	   N	51.299	37.700	76.409	N.am	9	MET295	0.000	
63	  CA	52.222	37.325	75.337	C.3	9	MET295	0.000	
64	   C	53.412	38.241	75.267	C.2	9	MET295	0.000	
65	   O	54.530	37.751	75.105	O.2	9	MET295	0.000	
66	  CB	51.509	37.298	74.008	C.3	9	MET295	0.000	
67	  CG	50.594	36.114	73.846	C.3	9	MET295	0.000	
68	  SD	49.699	36.049	72.281	S.3	9	MET295	0.000	
69	  CE	49.160	34.344	72.354	C.3	9	MET295	0.000	
70	   N	55.623	37.319	78.142	N.3	10	LEU298	0.000	
71	  CA	56.364	36.116	77.710	C.3	10	LEU298	0.000	
72	   C	57.532	36.439	76.780	C.2	10	LEU298	0.000	
73	   O	58.644	35.951	76.980	O.2	10	LEU298	0.000	
74	  CB	55.407	35.179	76.994	C.3	10	LEU298	0.000	
75	  CG	55.981	33.907	76.378	C.3	10	LEU298	0.000	
76	 CD1	56.551	33.047	77.465	C.3	10	LEU298	0.000	
77	 CD2	54.883	33.208	75.619	C.3	10	LEU298	0.000	
78	   N	60.280	38.123	78.841	N.3	11	ARG301	0.000	
79	  CA	61.013	37.103	79.623	C.3	11	ARG301	0.000	
80	   C	61.925	36.209	78.768	C.2	11	ARG301	0.000	
81	   O	62.939	35.675	79.253	O.2	11	ARG301	0.000	
82	  CB	60.042	36.222	80.378	C.3	11	ARG301	0.000	
83	  CG	59.239	36.958	81.414	C.3	11	ARG301	0.000	
84	  CD	58.538	36.004	82.347	C.3	11	ARG301	0.000	
85	  NE	57.480	35.210	81.734	N.pl3	11	ARG301	0.000	
86	  CZ	56.253	35.628	81.451	C.cat	11	ARG301	0.000	
87	 NH1	55.881	36.896	81.654	N.pl3	11	ARG301	0.000	
88	 NH2	55.382	34.768	80.936	N.pl3	11	ARG301	0.000	
89	   N	58.050	30.756	80.170	N.3	12	PHE311	0.000	
90	  CA	56.668	31.037	80.618	C.3	12	PHE311	0.000	
91	   C	56.661	31.491	82.068	C.2	12	PHE311	0.000	
92	   O	55.972	32.445	82.435	O.2	12	PHE311	0.000	
93	  CB	55.743	29.838	80.425	C.3	12	PHE311	0.000	
94	  CG	55.234	29.695	79.027	C.2	12	PHE311	0.000	
95	 CD1	54.062	30.321	78.638	C.2	12	PHE311	0.000	
96	 CD2	55.927	28.916	78.094	C.2	12	PHE311	0.000	
97	 CE1	53.584	30.179	77.331	C.2	12	PHE311	0.000	
98	 CE2	55.453	28.779	76.791	C.2	12	PHE311	0.000	
99	  CZ	54.291	29.403	76.417	C.2	12	PHE311	0.000	
100	   N	49.497	24.048	69.001	N.3	13	ILE328	0.000	
101	  CA	50.233	25.075	69.750	C.3	13	ILE328	0.000	
102	   C	51.610	25.379	69.149	C.2	13	ILE328	0.000	
103	   O	52.154	26.448	69.409	O.2	13	ILE328	0.000	
104	  CB	50.396	24.701	71.266	C.3	13	ILE328	0.000	
105	 CG1	50.282	25.955	72.149	C.3	13	ILE328	0.000	
106	 CG2	51.706	23.953	71.498	C.3	13	ILE328	0.000	
107	 CD1	50.267	25.659	73.679	C.3	13	ILE328	0.000	
108	   N	51.751	28.504	67.076	N.3	14	ILE331	0.000	
109	  CA	51.691	29.670	67.974	C.3	14	ILE331	0.000	
110	   C	53.041	29.927	68.672	C.2	14	ILE331	0.000	
111	   O	53.524	31.064	68.726	O.2	14	ILE331	0.000	
112	  CB	50.544	29.470	69.018	C.3	14	ILE331	0.000	
113	 CG1	49.187	29.377	68.294	C.3	14	ILE331	0.000	
114	 CG2	50.503	30.566	70.033	C.3	14	ILE331	0.000	
115	 CD1	47.998	29.266	69.229	C.3	14	ILE331	0.000	
116	   N	55.319	33.275	68.429	N.3	15	LEU335	0.000	
117	  CA	55.820	33.932	69.651	C.3	15	LEU335	0.000	
118	   C	57.343	34.038	69.647	C.2	15	LEU335	0.000	
119	   O	57.905	35.096	69.958	O.2	15	LEU335	0.000	
120	  CB	55.351	33.168	70.903	C.3	15	LEU335	0.000	
121	  CG	53.851	33.288	71.238	C.3	15	LEU335	0.000	
122	 CD1	53.468	32.234	72.306	C.3	15	LEU335	0.000	
123	 CD2	53.513	34.737	71.674	C.3	15	LEU335	0.000	
124	   N	45.798	32.561	69.683	N.3	16	GLY427	0.000	
125	  CA	45.848	31.970	71.020	C.3	16	GLY427	0.000	
126	   C	44.463	31.761	71.593	C.2	16	GLY427	0.000	
127	   O	44.141	30.699	72.160	O.2	16	GLY427	0.000	
128	   N	42.653	28.985	69.904	N.3	17	HIS430	0.000	
129	  CA	43.215	27.709	70.325	C.3	17	HIS430	0.000	
130	   C	42.735	27.282	71.720	C.2	17	HIS430	0.000	
131	   O	42.398	26.124	71.940	O.2	17	HIS430	0.000	
132	  CB	44.747	27.801	70.300	C.3	17	HIS430	0.000	
133	  CG	45.428	26.516	70.636	C.2	17	HIS430	0.000	
134	 CD2	45.807	25.478	69.854	C.2	17	HIS430	0.000	
135	 ND1	45.779	26.180	71.925	N.2	17	HIS430	0.000	
136	 CE1	46.349	24.988	71.921	C.2	17	HIS430	0.000	
137	 NE2	46.380	24.542	70.679	N.pl3	17	HIS430	0.000	
138	   N	42.715	28.217	72.656	N.am	18	LEU431	0.000	
139	  CA	42.246	27.959	74.012	C.3	18	LEU431	0.000	
140	   C	40.761	27.596	74.001	C.2	18	LEU431	0.000	
141	   O	40.355	26.604	74.617	O.2	18	LEU431	0.000	
142	  CB	42.516	29.154	74.943	C.3	18	LEU431	0.000	
143	  CG	42.111	28.950	76.419	C.3	18	LEU431	0.000	
144	 CD1	42.738	27.680	77.019	C.3	18	LEU431	0.000	
145	 CD2	42.442	30.144	77.249	C.3	18	LEU431	0.000	
146	   N	40.608	24.029	72.786	N.3	19	MET434	0.000	
147	  CA	41.015	23.118	73.855	C.3	19	MET434	0.000	
148	   C	39.933	22.948	74.935	C.2	19	MET434	0.000	
149	   O	39.695	21.836	75.396	O.2	19	MET434	0.000	
150	  CB	42.329	23.559	74.500	C.3	19	MET434	0.000	
151	  CG	43.570	23.463	73.590	C.3	19	MET434	0.000	
152	  SD	44.089	21.811	73.056	S.3	19	MET434	0.000	
153	  CE	43.227	21.629	71.496	C.3	19	MET434	0.000	
@<TRIPOS>BOND
1 1 2 1
2 2 3 1
3 2 5 1
4 3 4 2
5 5 6 1
6 6 7 1
7 7 8 1
8 9 10 1
9 10 11 1
10 10 13 1
11 11 12 2
12 11 17 1
13 13 14 1
14 14 15 1
15 14 16 1
16 17 18 1
17 18 19 1
18 18 21 1
19 19 20 2
20 21 22 1
21 21 23 1
22 24 25 1
23 25 26 1
24 25 28 1
25 26 27 2
26 26 32 1
27 28 29 1
28 29 30 1
29 29 31 1
30 32 33 1
31 33 34 1
32 33 36 1
33 34 35 2
34 37 38 1
35 38 39 1
36 38 41 1
37 39 40 2
38 41 42 1
39 42 43 1
40 43 44 2
41 43 45 1
42 46 47 1
43 47 48 1
44 47 50 1
45 48 49 2
46 50 51 1
47 51 52 1
48 52 53 1
49 54 55 1
50 55 56 1
51 55 58 1
52 56 57 2
53 56 62 1
54 58 59 1
55 59 60 1
56 59 61 1
57 62 63 1
58 63 64 1
59 63 66 1
60 64 65 2
61 66 67 1
62 67 68 1
63 68 69 1
64 70 71 1
65 71 72 1
66 71 74 1
67 72 73 2
68 74 75 1
69 75 76 1
70 75 77 1
71 78 79 1
72 79 80 1
73 79 82 1
74 80 81 2
75 82 83 1
76 83 84 1
77 84 85 1
78 85 86 1
79 86 87 2
80 86 88 1
81 89 90 1
82 90 91 1
83 90 93 1
84 91 92 2
85 93 94 1
86 94 95 2
87 94 96 1
88 95 97 1
89 96 98 2
90 97 99 2
91 98 99 1
92 100 101 1
93 101 102 1
94 101 104 1
95 102 103 2
96 104 105 1
97 104 106 1
98 105 107 1
99 108 109 1
100 109 110 1
101 109 112 1
102 110 111 2
103 112 113 1
104 112 114 1
105 113 115 1
106 116 117 1
107 117 118 1
108 117 120 1
109 118 119 2
110 120 121 1
111 121 122 1
112 121 123 1
113 124 125 1
114 125 126 1
115 126 127 2
116 128 129 1
117 129 130 1
118 129 132 1
119 130 131 2
120 130 138 1
121 132 133 1
122 133 134 2
123 133 135 1
124 134 137 1
125 135 136 2
126 136 137 1
127 138 139 1
128 139 140 1
129 139 142 1
130 140 141 2
131 142 143 1
132 143 144 1
133 143 145 1
134 146 147 1
135 147 148 1
136 147 150 1
137 148 149 2
138 150 151 1
139 151 152 1
140 152 153 1
@<TRIPOS>SUBSTRUCTURE
1	MET250	1	RESIDUE	1 A	MET
2	LEU253	9	RESIDUE	1 A	LEU
3	THR254	17	RESIDUE	1 A	THR
4	LEU256	24	RESIDUE	1 A	LEU
5	ALA257	32	RESIDUE	1 A	ALA
6	GLU260	37	RESIDUE	1 A	GLU
7	MET291	46	RESIDUE	1 A	MET
8	LEU294	54	RESIDUE	1 A	LEU
9	MET295	62	RESIDUE	1 A	MET
10	LEU298	70	RESIDUE	1 A	LEU
11	ARG301	78	RESIDUE	1 A	ARG
12	PHE311	89	RESIDUE	1 A	PHE
13	ILE328	100	RESIDUE	1 A	ILE
14	ILE331	108	RESIDUE	1 A	ILE
15	LEU335	116	RESIDUE	1 A	LEU
16	GLY427	124	RESIDUE	1 A	GLY
17	HIS430	128	RESIDUE	1 A	HIS
18	LEU431	138	RESIDUE	1 A	LEU
19	MET434	146	RESIDUE	1 A	MET
