# created with PyMOL 2.5.0
@<TRIPOS>MOLECULE
2jj3
171 158 21              
SMALL
USER_CHARGES
@<TRIPOS>ATOM
1	   N	76.186	48.520	71.785	N.3	1	MET295	0.000	
2	  CA	77.374	47.658	71.742	C.3	1	MET295	0.000	
3	   C	77.955	47.484	73.126	C.2	1	MET295	0.000	
4	   O	78.653	46.497	73.387	O.2	1	MET295	0.000	
5	  CB	78.414	48.248	70.817	C.3	1	MET295	0.000	
6	  CG	77.939	48.322	69.389	C.3	1	MET295	0.000	
7	  SD	77.130	46.793	68.884	S.3	1	MET295	0.000	
8	  CE	78.527	45.711	68.688	C.3	1	MET295	0.000	
9	   N	75.457	44.835	74.703	N.3	2	LEU298	0.000	
10	  CA	75.730	43.552	74.084	C.3	2	LEU298	0.000	
11	   C	77.005	42.947	74.659	C.2	2	LEU298	0.000	
12	   O	76.990	41.793	75.117	O.2	2	LEU298	0.000	
13	  CB	75.829	43.704	72.566	C.3	2	LEU298	0.000	
14	  CG	74.486	44.036	71.898	C.3	2	LEU298	0.000	
15	 CD1	74.675	44.260	70.411	C.3	2	LEU298	0.000	
16	 CD2	73.497	42.898	72.144	C.3	2	LEU298	0.000	
17	   N	78.087	43.724	74.674	N.am	3	THR299	0.000	
18	  CA	79.355	43.237	75.203	C.3	3	THR299	0.000	
19	   C	79.292	42.890	76.685	C.2	3	THR299	0.000	
20	   O	79.938	41.933	77.123	O.2	3	THR299	0.000	
21	  CB	80.525	44.250	74.996	C.3	3	THR299	0.000	
22	 CG2	80.777	44.510	73.514	C.3	3	THR299	0.000	
23	 OG1	80.208	45.484	75.647	O.3	3	THR299	0.000	
24	   N	76.669	41.819	78.201	N.3	4	LEU301	0.000	
25	  CA	75.861	40.599	78.241	C.3	4	LEU301	0.000	
26	   C	76.705	39.372	77.882	C.2	4	LEU301	0.000	
27	   O	76.750	38.401	78.641	O.2	4	LEU301	0.000	
28	  CB	74.692	40.712	77.264	C.3	4	LEU301	0.000	
29	  CG	73.811	39.472	77.136	C.3	4	LEU301	0.000	
30	 CD1	73.165	39.163	78.476	C.3	4	LEU301	0.000	
31	 CD2	72.752	39.717	76.063	C.3	4	LEU301	0.000	
32	   N	77.374	39.424	76.732	N.am	5	ALA302	0.000	
33	  CA	78.210	38.312	76.284	C.3	5	ALA302	0.000	
34	   C	79.176	37.886	77.375	C.2	5	ALA302	0.000	
35	   O	79.276	36.700	77.707	O.2	5	ALA302	0.000	
36	  CB	78.977	38.704	75.036	C.3	5	ALA302	0.000	
37	   N	77.298	35.942	79.857	N.3	6	GLU305	0.000	
38	  CA	76.841	34.654	79.342	C.3	6	GLU305	0.000	
39	   C	77.974	33.639	79.239	C.2	6	GLU305	0.000	
40	   O	77.786	32.456	79.541	O.2	6	GLU305	0.000	
41	  CB	76.199	34.818	77.960	C.3	6	GLU305	0.000	
42	  CG	75.000	35.743	77.933	C.3	6	GLU305	0.000	
43	  CD	74.226	35.658	76.632	C.2	6	GLU305	0.000	
44	 OE1	73.359	34.765	76.507	O.co2	6	GLU305	0.000	
45	 OE2	74.489	36.480	75.727	O.co2	6	GLU305	0.000	
46	   N	80.786	32.277	70.228	N.3	7	MET336	0.000	
47	  CA	79.901	33.183	69.511	C.3	7	MET336	0.000	
48	   C	78.728	32.427	68.854	C.2	7	MET336	0.000	
49	   O	77.614	32.957	68.800	O.2	7	MET336	0.000	
50	  CB	80.714	33.976	68.478	C.3	7	MET336	0.000	
51	  CG	79.918	34.964	67.650	C.3	7	MET336	0.000	
52	  SD	79.222	36.303	68.612	S.3	7	MET336	0.000	
53	  CE	80.350	37.682	68.206	C.3	7	MET336	0.000	
54	   N	76.184	31.455	71.684	N.3	8	LEU339	0.000	
55	  CA	75.441	32.614	72.161	C.3	8	LEU339	0.000	
56	   C	74.352	32.928	71.152	C.2	8	LEU339	0.000	
57	   O	73.215	33.235	71.528	O.2	8	LEU339	0.000	
58	  CB	76.361	33.838	72.336	C.3	8	LEU339	0.000	
59	  CG	77.330	33.810	73.532	C.3	8	LEU339	0.000	
60	 CD1	78.025	35.158	73.698	C.3	8	LEU339	0.000	
61	 CD2	76.553	33.457	74.797	C.3	8	LEU339	0.000	
62	   N	74.691	32.842	69.868	N.am	9	MET340	0.000	
63	  CA	73.714	33.128	68.827	C.3	9	MET340	0.000	
64	   C	72.646	32.042	68.724	C.2	9	MET340	0.000	
65	   O	71.492	32.336	68.432	O.2	9	MET340	0.000	
66	  CB	74.414	33.333	67.485	C.3	9	MET340	0.000	
67	  CG	75.253	34.607	67.464	C.3	9	MET340	0.000	
68	  SD	76.141	34.801	65.916	S.3	9	MET340	0.000	
69	  CE	76.344	36.615	65.865	C.3	9	MET340	0.000	
70	   N	70.382	32.893	71.422	N.3	10	LEU343	0.000	
71	  CA	69.605	34.081	71.065	C.3	10	LEU343	0.000	
72	   C	68.451	33.749	70.115	C.2	10	LEU343	0.000	
73	   O	67.333	34.235	70.289	O.2	10	LEU343	0.000	
74	  CB	70.516	35.125	70.407	C.3	10	LEU343	0.000	
75	  CG	69.793	36.264	69.672	C.3	10	LEU343	0.000	
76	 CD1	69.146	37.208	70.690	C.3	10	LEU343	0.000	
77	 CD2	70.785	37.026	68.793	C.3	10	LEU343	0.000	
78	   N	65.556	31.801	71.962	N.3	11	ARG346	0.000	
79	  CA	64.604	32.614	72.731	C.3	11	ARG346	0.000	
80	   C	63.853	33.669	71.926	C.2	11	ARG346	0.000	
81	   O	62.849	34.197	72.391	O.2	11	ARG346	0.000	
82	  CB	65.246	33.264	73.963	C.3	11	ARG346	0.000	
83	  CG	66.693	33.553	73.882	C.3	11	ARG346	0.000	
84	  CD	67.222	34.085	75.212	C.3	11	ARG346	0.000	
85	  NE	68.350	34.957	74.916	N.pl3	11	ARG346	0.000	
86	  CZ	69.592	34.536	74.725	C.cat	11	ARG346	0.000	
87	 NH1	69.880	33.243	74.828	N.pl3	11	ARG346	0.000	
88	 NH2	70.534	35.403	74.364	N.pl3	11	ARG346	0.000	
89	   N	67.680	39.268	73.388	N.3	12	PHE356	0.000	
90	  CA	69.047	39.036	73.847	C.3	12	PHE356	0.000	
91	   C	69.096	38.670	75.324	C.2	12	PHE356	0.000	
92	   O	69.916	37.857	75.750	O.2	12	PHE356	0.000	
93	  CB	69.895	40.286	73.627	C.3	12	PHE356	0.000	
94	  CG	70.415	40.425	72.230	C.2	12	PHE356	0.000	
95	 CD1	71.565	39.756	71.838	C.2	12	PHE356	0.000	
96	 CD2	69.752	41.216	71.305	C.2	12	PHE356	0.000	
97	 CE1	72.049	39.871	70.550	C.2	12	PHE356	0.000	
98	 CE2	70.230	41.335	70.011	C.2	12	PHE356	0.000	
99	  CZ	71.381	40.662	69.631	C.2	12	PHE356	0.000	
100	   N	75.934	46.250	61.981	N.3	13	ILE373	0.000	
101	  CA	75.111	45.407	62.828	C.3	13	ILE373	0.000	
102	   C	73.786	45.018	62.197	C.2	13	ILE373	0.000	
103	   O	73.318	43.895	62.383	O.2	13	ILE373	0.000	
104	  CB	74.838	46.087	64.179	C.3	13	ILE373	0.000	
105	 CG1	76.101	46.033	65.040	C.3	13	ILE373	0.000	
106	 CG2	73.680	45.408	64.886	C.3	13	ILE373	0.000	
107	 CD1	76.606	44.627	65.312	C.3	13	ILE373	0.000	
108	   N	74.032	41.826	60.388	N.3	14	ILE376	0.000	
109	  CA	74.088	40.662	61.264	C.3	14	ILE376	0.000	
110	   C	72.712	40.339	61.862	C.2	14	ILE376	0.000	
111	   O	72.337	39.173	61.964	O.2	14	ILE376	0.000	
112	  CB	75.111	40.898	62.389	C.3	14	ILE376	0.000	
113	 CG1	76.473	41.223	61.770	C.3	14	ILE376	0.000	
114	 CG2	75.226	39.667	63.276	C.3	14	ILE376	0.000	
115	 CD1	77.580	41.448	62.787	C.3	14	ILE376	0.000	
116	   N	71.966	41.372	62.246	N.am	15	PHE377	0.000	
117	  CA	70.624	41.206	62.809	C.3	15	PHE377	0.000	
118	   C	69.726	40.496	61.805	C.2	15	PHE377	0.000	
119	   O	68.891	39.658	62.169	O.2	15	PHE377	0.000	
120	  CB	70.014	42.574	63.146	C.3	15	PHE377	0.000	
121	  CG	70.362	43.073	64.518	C.2	15	PHE377	0.000	
122	 CD1	71.473	42.583	65.186	C.2	15	PHE377	0.000	
123	 CD2	69.568	44.013	65.149	C.2	15	PHE377	0.000	
124	 CE1	71.783	43.015	66.458	C.2	15	PHE377	0.000	
125	 CE2	69.874	44.451	66.425	C.2	15	PHE377	0.000	
126	  CZ	70.983	43.946	67.075	C.2	15	PHE377	0.000	
127	   N	70.546	36.802	61.666	N.3	16	LEU380	0.000	
128	  CA	70.019	36.159	62.860	C.3	16	LEU380	0.000	
129	   C	68.507	36.043	62.773	C.2	16	LEU380	0.000	
130	   O	67.939	35.014	63.121	O.2	16	LEU380	0.000	
131	  CB	70.406	36.965	64.103	C.3	16	LEU380	0.000	
132	  CG	71.905	37.082	64.417	C.3	16	LEU380	0.000	
133	 CD1	72.115	38.108	65.537	C.3	16	LEU380	0.000	
134	 CD2	72.464	35.720	64.824	C.3	16	LEU380	0.000	
135	   N	79.693	38.032	63.147	N.3	17	GLY472	0.000	
136	  CA	79.708	38.688	64.444	C.3	17	GLY472	0.000	
137	   C	81.120	38.856	64.970	C.2	17	GLY472	0.000	
138	   O	81.438	39.883	65.562	O.2	17	GLY472	0.000	
139	   N	82.957	41.627	62.952	N.3	18	HIS475	0.000	
140	  CA	82.476	42.920	63.402	C.3	18	HIS475	0.000	
141	   C	83.018	43.293	64.780	C.2	18	HIS475	0.000	
142	   O	83.329	44.454	65.040	O.2	18	HIS475	0.000	
143	  CB	80.945	42.916	63.438	C.3	18	HIS475	0.000	
144	  CG	80.351	44.220	63.868	C.2	18	HIS475	0.000	
145	 CD2	79.689	45.170	63.165	C.2	18	HIS475	0.000	
146	 ND1	80.451	44.696	65.158	N.2	18	HIS475	0.000	
147	 CE1	79.880	45.885	65.229	C.2	18	HIS475	0.000	
148	 NE2	79.410	46.195	64.035	N.pl3	18	HIS475	0.000	
149	   N	83.137	42.306	65.658	N.am	19	LEU476	0.000	
150	  CA	83.616	42.552	67.011	C.3	19	LEU476	0.000	
151	   C	85.084	42.964	67.037	C.2	19	LEU476	0.000	
152	   O	85.493	43.810	67.829	O.2	19	LEU476	0.000	
153	  CB	83.424	41.304	67.873	C.3	19	LEU476	0.000	
154	  CG	84.006	41.365	69.285	C.3	19	LEU476	0.000	
155	 CD1	83.291	42.440	70.046	C.3	19	LEU476	0.000	
156	 CD2	83.835	40.047	69.998	C.3	19	LEU476	0.000	
157	   N	85.590	46.294	65.583	N.3	20	MET479	0.000	
158	  CA	84.988	47.274	66.464	C.3	20	MET479	0.000	
159	   C	85.993	48.237	67.074	C.2	20	MET479	0.000	
160	   O	87.117	47.859	67.398	O.2	20	MET479	0.000	
161	  CB	84.225	46.588	67.590	C.3	20	MET479	0.000	
162	  CG	82.945	47.272	67.946	C.3	20	MET479	0.000	
163	  SD	82.554	47.011	69.677	S.3	20	MET479	0.000	
164	  CE	83.516	45.593	70.057	C.3	20	MET479	0.000	
165	   N	85.463	41.171	75.447	N.3	21	VAL487	0.000	
166	  CA	84.940	39.854	75.687	C.3	21	VAL487	0.000	
167	   C	85.930	38.753	75.429	C.2	21	VAL487	0.000	
168	   O	86.128	37.909	76.294	O.2	21	VAL487	0.000	
169	  CB	83.668	39.606	74.842	C.3	21	VAL487	0.000	
170	 CG1	82.982	38.285	75.255	C.3	21	VAL487	0.000	
171	 CG2	82.733	40.755	75.058	C.3	21	VAL487	0.000	
@<TRIPOS>BOND
1 1 2 1
2 2 3 1
3 2 5 1
4 3 4 2
5 5 6 1
6 6 7 1
7 7 8 1
8 9 10 1
9 10 11 1
10 10 13 1
11 11 12 2
12 11 17 1
13 13 14 1
14 14 15 1
15 14 16 1
16 17 18 1
17 18 19 1
18 18 21 1
19 19 20 2
20 21 22 1
21 21 23 1
22 24 25 1
23 25 26 1
24 25 28 1
25 26 27 2
26 26 32 1
27 28 29 1
28 29 30 1
29 29 31 1
30 32 33 1
31 33 34 1
32 33 36 1
33 34 35 2
34 37 38 1
35 38 39 1
36 38 41 1
37 39 40 2
38 41 42 1
39 42 43 1
40 43 44 2
41 43 45 1
42 46 47 1
43 47 48 1
44 47 50 1
45 48 49 2
46 50 51 1
47 51 52 1
48 52 53 1
49 54 55 1
50 55 56 1
51 55 58 1
52 56 57 2
53 56 62 1
54 58 59 1
55 59 60 1
56 59 61 1
57 62 63 1
58 63 64 1
59 63 66 1
60 64 65 2
61 66 67 1
62 67 68 1
63 68 69 1
64 70 71 1
65 71 72 1
66 71 74 1
67 72 73 2
68 74 75 1
69 75 76 1
70 75 77 1
71 78 79 1
72 79 80 1
73 79 82 1
74 80 81 2
75 82 83 1
76 83 84 1
77 84 85 1
78 85 86 1
79 86 87 2
80 86 88 1
81 89 90 1
82 90 91 1
83 90 93 1
84 91 92 2
85 93 94 1
86 94 95 2
87 94 96 1
88 95 97 1
89 96 98 2
90 97 99 2
91 98 99 1
92 100 101 1
93 101 102 1
94 101 104 1
95 102 103 2
96 104 105 1
97 104 106 1
98 105 107 1
99 108 109 1
100 109 110 1
101 109 112 1
102 110 111 2
103 110 116 1
104 112 113 1
105 112 114 1
106 113 115 1
107 116 117 1
108 117 118 1
109 117 120 1
110 118 119 2
111 120 121 1
112 121 122 2
113 121 123 1
114 122 124 1
115 123 125 2
116 124 126 2
117 125 126 1
118 127 128 1
119 128 129 1
120 128 131 1
121 129 130 2
122 131 132 1
123 132 133 1
124 132 134 1
125 135 136 1
126 136 137 1
127 137 138 2
128 139 140 1
129 140 141 1
130 140 143 1
131 141 142 2
132 141 149 1
133 143 144 1
134 144 145 2
135 144 146 1
136 145 148 1
137 146 147 2
138 147 148 1
139 149 150 1
140 150 151 1
141 150 153 1
142 151 152 2
143 153 154 1
144 154 155 1
145 154 156 1
146 157 158 1
147 158 159 1
148 158 161 1
149 159 160 2
150 161 162 1
151 162 163 1
152 163 164 1
153 165 166 1
154 166 167 1
155 166 169 1
156 167 168 2
157 169 170 1
158 169 171 1
@<TRIPOS>SUBSTRUCTURE
1	MET295	1	RESIDUE	1 A	MET
2	LEU298	9	RESIDUE	1 A	LEU
3	THR299	17	RESIDUE	1 A	THR
4	LEU301	24	RESIDUE	1 A	LEU
5	ALA302	32	RESIDUE	1 A	ALA
6	GLU305	37	RESIDUE	1 A	GLU
7	MET336	46	RESIDUE	1 A	MET
8	LEU339	54	RESIDUE	1 A	LEU
9	MET340	62	RESIDUE	1 A	MET
10	LEU343	70	RESIDUE	1 A	LEU
11	ARG346	78	RESIDUE	1 A	ARG
12	PHE356	89	RESIDUE	1 A	PHE
13	ILE373	100	RESIDUE	1 A	ILE
14	ILE376	108	RESIDUE	1 A	ILE
15	PHE377	116	RESIDUE	1 A	PHE
16	LEU380	127	RESIDUE	1 A	LEU
17	GLY472	135	RESIDUE	1 A	GLY
18	HIS475	139	RESIDUE	1 A	HIS
19	LEU476	149	RESIDUE	1 A	LEU
20	MET479	157	RESIDUE	1 A	MET
21	VAL487	165	RESIDUE	1 A	VAL
