# created with PyMOL 2.5.0
@<TRIPOS>MOLECULE
2pog
163 154 19              
SMALL
USER_CHARGES
@<TRIPOS>ATOM
1	   N	17.109	58.260	56.582	N.3	1	MET343	0.000	
2	  CA	17.079	57.677	57.921	C.3	1	MET343	0.000	
3	   C	16.390	58.608	58.910	C.2	1	MET343	0.000	
4	   O	15.622	58.164	59.762	O.2	1	MET343	0.000	
5	  CB	18.496	57.375	58.408	C.3	1	MET343	0.000	
6	  CG	19.085	56.109	57.827	C.3	1	MET343	0.000	
7	  SD	18.009	54.699	58.127	S.3	1	MET343	0.000	
8	  CE	17.975	54.655	59.910	C.3	1	MET343	0.000	
9	   N	12.662	58.201	58.317	N.3	2	LEU346	0.000	
10	  CA	12.183	56.905	58.782	C.3	2	LEU346	0.000	
11	   C	12.186	56.785	60.299	C.2	2	LEU346	0.000	
12	   O	11.230	56.279	60.881	O.2	2	LEU346	0.000	
13	  CB	13.024	55.790	58.164	C.3	2	LEU346	0.000	
14	  CG	12.923	55.706	56.640	C.3	2	LEU346	0.000	
15	 CD1	13.787	54.565	56.119	C.3	2	LEU346	0.000	
16	 CD2	11.470	55.502	56.240	C.3	2	LEU346	0.000	
17	   N	9.506	59.025	61.872	N.3	3	LEU349	0.000	
18	  CA	8.203	58.418	61.657	C.3	3	LEU349	0.000	
19	   C	7.999	57.284	62.655	C.2	3	LEU349	0.000	
20	   O	6.960	57.205	63.295	O.2	3	LEU349	0.000	
21	  CB	8.093	57.886	60.225	C.3	3	LEU349	0.000	
22	  CG	6.834	57.083	59.893	C.3	3	LEU349	0.000	
23	 CD1	5.578	57.952	59.998	C.3	3	LEU349	0.000	
24	 CD2	6.977	56.532	58.476	C.3	3	LEU349	0.000	
25	   N	8.991	56.407	62.778	N.am	4	ALA350	0.000	
26	  CA	8.895	55.292	63.720	C.3	4	ALA350	0.000	
27	   C	8.739	55.815	65.149	C.2	4	ALA350	0.000	
28	   O	8.007	55.236	65.946	O.2	4	ALA350	0.000	
29	  CB	10.134	54.401	63.612	C.3	4	ALA350	0.000	
30	   N	5.161	56.857	65.695	N.3	5	GLU353	0.000	
31	  CA	4.269	55.696	65.670	C.3	5	GLU353	0.000	
32	   C	4.320	54.920	66.983	C.2	5	GLU353	0.000	
33	   O	3.335	54.305	67.386	O.2	5	GLU353	0.000	
34	  CB	4.636	54.743	64.526	C.3	5	GLU353	0.000	
35	  CG	4.216	55.217	63.136	C.3	5	GLU353	0.000	
36	  CD	4.506	54.168	62.079	C.2	5	GLU353	0.000	
37	 OE1	5.657	54.099	61.612	O.co2	5	GLU353	0.000	
38	 OE2	3.586	53.402	61.732	O.co2	5	GLU353	0.000	
39	   N	8.479	45.801	69.089	N.3	6	TRP383	0.000	
40	  CA	8.159	47.046	68.391	C.3	6	TRP383	0.000	
41	   C	8.559	47.104	66.921	C.2	6	TRP383	0.000	
42	   O	7.768	47.548	66.097	O.2	6	TRP383	0.000	
43	  CB	8.741	48.260	69.127	C.3	6	TRP383	0.000	
44	  CG	10.216	48.364	69.060	C.2	6	TRP383	0.000	
45	 CD1	11.123	47.764	69.891	C.2	6	TRP383	0.000	
46	 CD2	10.978	49.090	68.089	C.2	6	TRP383	0.000	
47	 CE2	12.341	48.887	68.391	C.2	6	TRP383	0.000	
48	 CE3	10.640	49.890	66.990	C.2	6	TRP383	0.000	
49	 NE1	12.403	48.075	69.496	N.pl3	6	TRP383	0.000	
50	 CZ2	13.366	49.458	67.638	C.2	6	TRP383	0.000	
51	 CZ3	11.658	50.455	66.241	C.2	6	TRP383	0.000	
52	 CH2	13.005	50.237	66.568	C.2	6	TRP383	0.000	
53	   N	9.764	46.667	66.568	N.am	7	LEU384	0.000	
54	  CA	10.141	46.754	65.160	C.3	7	LEU384	0.000	
55	   C	9.380	45.752	64.294	C.2	7	LEU384	0.000	
56	   O	9.077	46.049	63.137	O.2	7	LEU384	0.000	
57	  CB	11.654	46.594	64.984	C.3	7	LEU384	0.000	
58	  CG	12.174	46.908	63.576	C.3	7	LEU384	0.000	
59	 CD1	11.711	48.297	63.148	C.3	7	LEU384	0.000	
60	 CD2	13.683	46.821	63.555	C.3	7	LEU384	0.000	
61	   N	6.072	47.407	63.695	N.3	8	LEU387	0.000	
62	  CA	6.142	48.477	62.701	C.3	8	LEU387	0.000	
63	   C	6.291	47.867	61.307	C.2	8	LEU387	0.000	
64	   O	5.665	48.327	60.342	O.2	8	LEU387	0.000	
65	  CB	7.330	49.408	62.970	C.3	8	LEU387	0.000	
66	  CG	7.246	50.347	64.178	C.3	8	LEU387	0.000	
67	 CD1	8.483	51.253	64.200	C.3	8	LEU387	0.000	
68	 CD2	5.968	51.189	64.085	C.3	8	LEU387	0.000	
69	   N	7.119	46.829	61.191	N.am	9	MET388	0.000	
70	  CA	7.331	46.199	59.887	C.3	9	MET388	0.000	
71	   C	6.127	45.462	59.303	C.2	9	MET388	0.000	
72	   O	5.894	45.537	58.101	O.2	9	MET388	0.000	
73	  CB	8.545	45.264	59.936	C.3	9	MET388	0.000	
74	  CG	9.875	46.007	60.072	C.3	9	MET388	0.000	
75	  SD	11.296	44.885	60.153	S.3	9	MET388	0.000	
76	  CE	12.650	46.052	59.892	C.3	9	MET388	0.000	
77	   N	3.952	48.085	57.986	N.3	10	LEU391	0.000	
78	  CA	4.517	48.603	56.741	C.3	10	LEU391	0.000	
79	   C	4.220	47.676	55.571	C.2	10	LEU391	0.000	
80	   O	3.783	48.124	54.502	O.2	10	LEU391	0.000	
81	  CB	6.035	48.770	56.877	C.3	10	LEU391	0.000	
82	  CG	6.832	49.056	55.599	C.3	10	LEU391	0.000	
83	 CD1	6.412	50.399	54.998	C.3	10	LEU391	0.000	
84	 CD2	8.314	49.063	55.937	C.3	10	LEU391	0.000	
85	   N	0.410	47.900	54.631	N.3	11	ARG394	0.000	
86	  CA	-0.040	49.011	53.814	C.3	11	ARG394	0.000	
87	   C	0.699	49.117	52.481	C.2	11	ARG394	0.000	
88	   O	0.357	49.947	51.648	O.2	11	ARG394	0.000	
89	  CB	0.022	50.330	54.595	C.3	11	ARG394	0.000	
90	  CG	1.308	50.615	55.306	C.3	11	ARG394	0.000	
91	  CD	1.190	51.880	56.166	C.3	11	ARG394	0.000	
92	  NE	2.509	52.319	56.600	N.pl3	11	ARG394	0.000	
93	  CZ	3.080	51.961	57.740	C.cat	11	ARG394	0.000	
94	 NH1	2.433	51.165	58.584	N.pl3	11	ARG394	0.000	
95	 NH2	4.314	52.372	58.014	N.pl3	11	ARG394	0.000	
96	   N	5.856	53.626	53.586	N.3	12	PHE404	0.000	
97	  CA	6.215	53.977	54.950	C.3	12	PHE404	0.000	
98	   C	5.149	54.945	55.438	C.2	12	PHE404	0.000	
99	   O	4.743	54.913	56.599	O.2	12	PHE404	0.000	
100	  CB	7.601	54.621	54.970	C.3	12	PHE404	0.000	
101	  CG	8.718	53.638	54.760	C.2	12	PHE404	0.000	
102	 CD1	9.189	52.876	55.816	C.2	12	PHE404	0.000	
103	 CD2	9.261	53.441	53.500	C.2	12	PHE404	0.000	
104	 CE1	10.185	51.931	55.617	C.2	12	PHE404	0.000	
105	 CE2	10.255	52.498	53.294	C.2	12	PHE404	0.000	
106	  CZ	10.715	51.744	54.350	C.2	12	PHE404	0.000	
107	   N	20.665	49.327	53.769	N.3	13	MET421	0.000	
108	  CA	19.218	49.490	53.813	C.3	13	MET421	0.000	
109	   C	18.539	48.686	52.705	C.2	13	MET421	0.000	
110	   O	17.472	48.106	52.904	O.2	13	MET421	0.000	
111	  CB	18.833	50.970	53.688	C.3	13	MET421	0.000	
112	  CG	17.344	51.229	53.769	C.3	13	MET421	0.000	
113	  SD	16.942	52.969	53.508	S.3	13	MET421	0.000	
114	  CE	17.043	53.601	55.154	C.3	13	MET421	0.000	
115	   N	17.334	45.109	53.478	N.3	14	ILE424	0.000	
116	  CA	16.129	45.051	54.301	C.3	14	ILE424	0.000	
117	   C	14.909	45.380	53.440	C.2	14	ILE424	0.000	
118	   O	13.890	44.700	53.516	O.2	14	ILE424	0.000	
119	  CB	16.232	46.026	55.492	C.3	14	ILE424	0.000	
120	 CG1	17.491	45.705	56.299	C.3	14	ILE424	0.000	
121	 CG2	15.014	45.886	56.391	C.3	14	ILE424	0.000	
122	 CD1	17.686	46.593	57.500	C.3	14	ILE424	0.000	
123	   N	15.028	46.418	52.614	N.am	15	PHE425	0.000	
124	  CA	13.948	46.826	51.713	C.3	15	PHE425	0.000	
125	   C	13.474	45.624	50.897	C.2	15	PHE425	0.000	
126	   O	12.269	45.373	50.781	O.2	15	PHE425	0.000	
127	  CB	14.436	47.895	50.730	C.3	15	PHE425	0.000	
128	  CG	14.078	49.303	51.109	C.2	15	PHE425	0.000	
129	 CD1	13.380	50.102	50.219	C.2	15	PHE425	0.000	
130	 CD2	14.490	49.852	52.315	C.2	15	PHE425	0.000	
131	 CE1	13.103	51.418	50.511	C.2	15	PHE425	0.000	
132	 CE2	14.213	51.184	52.618	C.2	15	PHE425	0.000	
133	  CZ	13.519	51.965	51.710	C.2	15	PHE425	0.000	
134	   N	11.457	43.266	52.973	N.3	16	LEU428	0.000	
135	  CA	10.125	43.809	53.227	C.3	16	LEU428	0.000	
136	   C	9.254	43.713	51.979	C.2	16	LEU428	0.000	
137	   O	8.081	43.336	52.060	O.2	16	LEU428	0.000	
138	  CB	10.233	45.262	53.702	C.3	16	LEU428	0.000	
139	  CG	10.855	45.396	55.100	C.3	16	LEU428	0.000	
140	 CD1	11.290	46.826	55.341	C.3	16	LEU428	0.000	
141	 CD2	9.848	44.964	56.156	C.3	16	LEU428	0.000	
142	   N	16.998	44.703	61.047	N.3	17	GLY521	0.000	
143	  CA	16.683	46.113	61.205	C.3	17	GLY521	0.000	
144	   C	17.376	46.710	62.416	C.2	17	GLY521	0.000	
145	   O	17.878	47.838	62.366	O.2	17	GLY521	0.000	
146	   N	20.991	47.183	61.780	N.3	18	HIS524	0.000	
147	  CA	21.142	48.360	60.931	C.3	18	HIS524	0.000	
148	   C	20.981	49.646	61.737	C.2	18	HIS524	0.000	
149	   O	21.769	50.585	61.607	O.2	18	HIS524	0.000	
150	  CB	20.101	48.318	59.807	C.3	18	HIS524	0.000	
151	  CG	20.245	49.418	58.802	C.2	18	HIS524	0.000	
152	 CD2	21.095	49.565	57.759	C.2	18	HIS524	0.000	
153	 ND1	19.441	50.538	58.802	N.2	18	HIS524	0.000	
154	 CE1	19.788	51.325	57.798	C.2	18	HIS524	0.000	
155	 NE2	20.790	50.758	57.150	N.pl3	18	HIS524	0.000	
156	   N	19.950	49.684	62.570	N.am	19	LEU525	0.000	
157	  CA	19.690	50.853	63.391	C.3	19	LEU525	0.000	
158	   C	20.901	51.118	64.277	C.2	19	LEU525	0.000	
159	   O	21.342	52.260	64.411	O.2	19	LEU525	0.000	
160	  CB	18.448	50.622	64.250	C.3	19	LEU525	0.000	
161	  CG	17.763	51.902	64.730	C.3	19	LEU525	0.000	
162	 CD1	17.465	52.793	63.535	C.3	19	LEU525	0.000	
163	 CD2	16.486	51.554	65.470	C.3	19	LEU525	0.000	
@<TRIPOS>BOND
1 1 2 1
2 2 3 1
3 2 5 1
4 3 4 2
5 5 6 1
6 6 7 1
7 7 8 1
8 9 10 1
9 10 11 1
10 10 13 1
11 11 12 2
12 13 14 1
13 14 15 1
14 14 16 1
15 17 18 1
16 18 19 1
17 18 21 1
18 19 20 2
19 19 25 1
20 21 22 1
21 22 23 1
22 22 24 1
23 25 26 1
24 26 27 1
25 26 29 1
26 27 28 2
27 30 31 1
28 31 32 1
29 31 34 1
30 32 33 2
31 34 35 1
32 35 36 1
33 36 37 2
34 36 38 1
35 39 40 1
36 40 41 1
37 40 43 1
38 41 42 2
39 41 53 1
40 43 44 1
41 44 45 2
42 44 46 1
43 45 49 1
44 46 47 2
45 46 48 1
46 47 50 1
47 48 51 2
48 47 49 1
49 50 52 2
50 51 52 1
51 53 54 1
52 54 55 1
53 54 57 1
54 55 56 2
55 57 58 1
56 58 59 1
57 58 60 1
58 61 62 1
59 62 63 1
60 62 65 1
61 63 64 2
62 63 69 1
63 65 66 1
64 66 67 1
65 66 68 1
66 69 70 1
67 70 71 1
68 70 73 1
69 71 72 2
70 73 74 1
71 74 75 1
72 75 76 1
73 77 78 1
74 78 79 1
75 78 81 1
76 79 80 2
77 81 82 1
78 82 83 1
79 82 84 1
80 85 86 1
81 86 87 1
82 86 89 1
83 87 88 2
84 89 90 1
85 90 91 1
86 91 92 1
87 92 93 1
88 93 94 2
89 93 95 1
90 96 97 1
91 97 98 1
92 97 100 1
93 98 99 2
94 100 101 1
95 101 102 2
96 101 103 1
97 102 104 1
98 103 105 2
99 104 106 2
100 105 106 1
101 107 108 1
102 108 109 1
103 108 111 1
104 109 110 2
105 111 112 1
106 112 113 1
107 113 114 1
108 115 116 1
109 116 117 1
110 116 119 1
111 117 118 2
112 117 123 1
113 119 120 1
114 119 121 1
115 120 122 1
116 123 124 1
117 124 125 1
118 124 127 1
119 125 126 2
120 127 128 1
121 128 129 2
122 128 130 1
123 129 131 1
124 130 132 2
125 131 133 2
126 132 133 1
127 134 135 1
128 135 136 1
129 135 138 1
130 136 137 2
131 138 139 1
132 139 140 1
133 139 141 1
134 142 143 1
135 143 144 1
136 144 145 2
137 146 147 1
138 147 148 1
139 147 150 1
140 148 149 2
141 148 156 1
142 150 151 1
143 151 152 2
144 151 153 1
145 152 155 1
146 153 154 2
147 154 155 1
148 156 157 1
149 157 158 1
150 157 160 1
151 158 159 2
152 160 161 1
153 161 162 1
154 161 163 1
@<TRIPOS>SUBSTRUCTURE
1	MET343	1	RESIDUE	1 A	MET
2	LEU346	9	RESIDUE	1 A	LEU
3	LEU349	17	RESIDUE	1 A	LEU
4	ALA350	25	RESIDUE	1 A	ALA
5	GLU353	30	RESIDUE	1 A	GLU
6	TRP383	39	RESIDUE	1 A	TRP
7	LEU384	53	RESIDUE	1 A	LEU
8	LEU387	61	RESIDUE	1 A	LEU
9	MET388	69	RESIDUE	1 A	MET
10	LEU391	77	RESIDUE	1 A	LEU
11	ARG394	85	RESIDUE	1 A	ARG
12	PHE404	96	RESIDUE	1 A	PHE
13	MET421	107	RESIDUE	1 A	MET
14	ILE424	115	RESIDUE	1 A	ILE
15	PHE425	123	RESIDUE	1 A	PHE
16	LEU428	134	RESIDUE	1 A	LEU
17	GLY521	142	RESIDUE	1 A	GLY
18	HIS524	146	RESIDUE	1 A	HIS
19	LEU525	156	RESIDUE	1 A	LEU
