# created with PyMOL 2.5.0
@<TRIPOS>MOLECULE
2qa8
153 140 19              
SMALL
USER_CHARGES
@<TRIPOS>ATOM
1	   N	-13.856	-8.305	20.901	N.3	1	MET343	0.000	
2	  CA	-13.501	-6.982	20.417	C.3	1	MET343	0.000	
3	   C	-13.762	-5.943	21.497	C.2	1	MET343	0.000	
4	   O	-13.014	-4.977	21.618	O.2	1	MET343	0.000	
5	  CB	-14.284	-6.601	19.157	C.3	1	MET343	0.000	
6	  CG	-13.665	-7.057	17.816	C.3	1	MET343	0.000	
7	  SD	-11.893	-6.751	17.531	S.3	1	MET343	0.000	
8	  CE	-11.796	-4.953	17.521	C.3	1	MET343	0.000	
9	   N	-10.801	-6.103	24.120	N.3	2	LEU346	0.000	
10	  CA	-9.578	-5.547	23.566	C.3	2	LEU346	0.000	
11	   C	-9.659	-4.031	23.496	C.2	2	LEU346	0.000	
12	   O	-8.724	-3.339	23.895	O.2	2	LEU346	0.000	
13	  CB	-9.300	-6.135	22.172	C.3	2	LEU346	0.000	
14	  CG	-8.379	-7.345	22.024	C.3	2	LEU346	0.000	
15	 CD1	-8.429	-8.181	23.264	C.3	2	LEU346	0.000	
16	 CD2	-8.740	-8.173	20.818	C.3	2	LEU346	0.000	
17	   N	-10.776	-3.496	23.001	N.am	3	THR347	0.000	
18	  CA	-10.876	-2.039	22.860	C.3	3	THR347	0.000	
19	   C	-11.078	-1.324	24.175	C.2	3	THR347	0.000	
20	   O	-10.666	-0.170	24.317	O.2	3	THR347	0.000	
21	  CB	-12.058	-1.564	21.935	C.3	3	THR347	0.000	
22	 CG2	-11.705	-1.719	20.449	C.3	3	THR347	0.000	
23	 OG1	-13.264	-2.284	22.248	O.3	3	THR347	0.000	
24	   N	-9.838	-2.336	27.091	N.3	4	LEU349	0.000	
25	  CA	-8.461	-2.346	27.613	C.3	4	LEU349	0.000	
26	   C	-7.627	-1.190	27.022	C.2	4	LEU349	0.000	
27	   O	-7.065	-0.341	27.753	O.2	4	LEU349	0.000	
28	  CB	-7.816	-3.722	27.333	C.3	4	LEU349	0.000	
29	  CG	-6.453	-4.104	27.927	C.3	4	LEU349	0.000	
30	 CD1	-6.428	-3.777	29.420	C.3	4	LEU349	0.000	
31	 CD2	-6.139	-5.620	27.692	C.3	4	LEU349	0.000	
32	   N	-7.582	-1.129	25.691	N.am	5	ALA350	0.000	
33	  CA	-6.782	-0.120	24.990	C.3	5	ALA350	0.000	
34	   C	-7.183	1.289	25.406	C.2	5	ALA350	0.000	
35	   O	-6.342	2.180	25.568	O.2	5	ALA350	0.000	
36	  CB	-6.900	-0.279	23.464	C.3	5	ALA350	0.000	
37	   N	-5.807	1.915	28.857	N.3	6	GLU353	0.000	
38	  CA	-4.347	2.036	28.746	C.3	6	GLU353	0.000	
39	   C	-3.893	3.376	28.137	C.2	6	GLU353	0.000	
40	   O	-2.876	3.936	28.534	O.2	6	GLU353	0.000	
41	  CB	-3.776	0.907	27.919	C.3	6	GLU353	0.000	
42	  CG	-3.803	-0.423	28.611	C.3	6	GLU353	0.000	
43	  CD	-3.051	-1.472	27.812	C.2	6	GLU353	0.000	
44	 OE1	-3.690	-2.193	27.014	O.co2	6	GLU353	0.000	
45	 OE2	-1.812	-1.568	27.973	O.co2	6	GLU353	0.000	
46	   N	-0.992	2.890	18.814	N.3	7	LEU384	0.000	
47	  CA	-1.217	1.413	18.748	C.3	7	LEU384	0.000	
48	   C	0.098	0.632	18.682	C.2	7	LEU384	0.000	
49	   O	0.178	-0.497	19.185	O.2	7	LEU384	0.000	
50	  CB	-2.162	0.985	17.600	C.3	7	LEU384	0.000	
51	  CG	-2.635	-0.495	17.531	C.3	7	LEU384	0.000	
52	 CD1	-3.348	-0.929	18.814	C.3	7	LEU384	0.000	
53	 CD2	-3.535	-0.812	16.291	C.3	7	LEU384	0.000	
54	   N	1.043	0.350	22.290	N.3	8	LEU387	0.000	
55	  CA	0.285	-0.683	22.971	C.3	8	LEU387	0.000	
56	   C	0.810	-2.069	22.566	C.2	8	LEU387	0.000	
57	   O	1.001	-2.928	23.413	O.2	8	LEU387	0.000	
58	  CB	-1.205	-0.615	22.638	C.3	8	LEU387	0.000	
59	  CG	-2.011	0.572	23.141	C.3	8	LEU387	0.000	
60	 CD1	-3.475	0.292	22.831	C.3	8	LEU387	0.000	
61	 CD2	-1.790	0.772	24.646	C.3	8	LEU387	0.000	
62	   N	1.072	-2.267	21.278	N.am	9	MET388	0.000	
63	  CA	1.478	-3.633	20.803	C.3	9	MET388	0.000	
64	   C	2.893	-4.052	21.258	C.2	9	MET388	0.000	
65	   O	3.136	-5.243	21.545	O.2	9	MET388	0.000	
66	  CB	1.409	-3.708	19.280	C.3	9	MET388	0.000	
67	  CG	-0.009	-3.757	18.705	C.3	9	MET388	0.000	
68	  SD	-0.089	-3.881	16.898	S.3	9	MET388	0.000	
69	  CE	-1.843	-4.295	16.774	C.3	9	MET388	0.000	
70	   N	2.387	-5.136	24.685	N.3	10	LEU391	0.000	
71	  CA	1.791	-6.498	24.628	C.3	10	LEU391	0.000	
72	   C	2.831	-7.607	24.373	C.2	10	LEU391	0.000	
73	   O	2.890	-8.641	25.084	O.2	10	LEU391	0.000	
74	  CB	0.702	-6.557	23.553	C.3	10	LEU391	0.000	
75	  CG	0.132	-7.932	23.191	C.3	10	LEU391	0.000	
76	 CD1	-0.587	-8.523	24.396	C.3	10	LEU391	0.000	
77	 CD2	-0.796	-7.818	21.959	C.3	10	LEU391	0.000	
78	   N	5.156	-8.087	27.352	N.3	11	ARG394	0.000	
79	  CA	4.683	-8.876	28.473	C.3	11	ARG394	0.000	
80	   C	4.331	-10.311	28.088	C.2	11	ARG394	0.000	
81	   O	4.270	-11.176	28.958	O.2	11	ARG394	0.000	
82	  CB	3.608	-8.187	29.305	C.3	11	ARG394	0.000	
83	  CG	2.707	-7.288	28.571	C.3	11	ARG394	0.000	
84	  CD	1.689	-6.686	29.498	C.3	11	ARG394	0.000	
85	  NE	0.449	-6.571	28.769	N.pl3	11	ARG394	0.000	
86	  CZ	0.180	-5.554	27.966	C.cat	11	ARG394	0.000	
87	 NH1	1.068	-4.569	27.828	N.pl3	11	ARG394	0.000	
88	 NH2	-0.967	-5.520	27.305	N.pl3	11	ARG394	0.000	
89	   N	-2.598	-9.843	27.008	N.3	12	PHE404	0.000	
90	  CA	-3.268	-8.544	26.947	C.3	12	PHE404	0.000	
91	   C	-3.393	-7.969	28.362	C.2	12	PHE404	0.000	
92	   O	-3.138	-6.799	28.585	O.2	12	PHE404	0.000	
93	  CB	-4.637	-8.690	26.267	C.3	12	PHE404	0.000	
94	  CG	-4.538	-8.909	24.789	C.2	12	PHE404	0.000	
95	 CD1	-4.442	-7.830	23.934	C.2	12	PHE404	0.000	
96	 CD2	-4.496	-10.200	24.250	C.2	12	PHE404	0.000	
97	 CE1	-4.326	-7.998	22.547	C.2	12	PHE404	0.000	
98	 CE2	-4.384	-10.376	22.863	C.2	12	PHE404	0.000	
99	  CZ	-4.303	-9.275	22.012	C.2	12	PHE404	0.000	
100	   N	-8.630	-11.398	12.722	N.3	13	MET421	0.000	
101	  CA	-7.806	-11.201	13.918	C.3	13	MET421	0.000	
102	   C	-6.672	-12.226	14.111	C.2	13	MET421	0.000	
103	   O	-5.610	-11.860	14.607	O.2	13	MET421	0.000	
104	  CB	-8.669	-11.092	15.186	C.3	13	MET421	0.000	
105	  CG	-7.854	-10.935	16.456	C.3	13	MET421	0.000	
106	  SD	-7.248	-9.244	16.633	S.3	13	MET421	0.000	
107	  CE	-8.776	-8.466	17.109	C.3	13	MET421	0.000	
108	   N	-3.365	-11.109	12.732	N.3	14	ILE424	0.000	
109	  CA	-2.714	-10.154	13.615	C.3	14	ILE424	0.000	
110	   C	-2.079	-10.825	14.848	C.2	14	ILE424	0.000	
111	   O	-0.926	-10.551	15.186	O.2	14	ILE424	0.000	
112	  CB	-3.683	-9.023	14.032	C.3	14	ILE424	0.000	
113	 CG1	-4.033	-8.160	12.811	C.3	14	ILE424	0.000	
114	 CG2	-3.069	-8.169	15.143	C.3	14	ILE424	0.000	
115	 CD1	-5.361	-7.469	12.911	C.3	14	ILE424	0.000	
116	   N	1.822	-10.851	16.112	N.3	15	LEU428	0.000	
117	  CA	2.193	-10.400	17.454	C.3	15	LEU428	0.000	
118	   C	2.940	-11.509	18.188	C.2	15	LEU428	0.000	
119	   O	3.915	-11.248	18.887	O.2	15	LEU428	0.000	
120	  CB	0.969	-9.891	18.251	C.3	15	LEU428	0.000	
121	  CG	0.371	-8.549	17.798	C.3	15	LEU428	0.000	
122	 CD1	-1.071	-8.396	18.305	C.3	15	LEU428	0.000	
123	 CD2	1.245	-7.412	18.271	C.3	15	LEU428	0.000	
124	   N	-3.635	-3.764	12.459	N.3	16	GLY521	0.000	
125	  CA	-4.571	-3.611	13.591	C.3	16	GLY521	0.000	
126	   C	-5.455	-2.385	13.405	C.2	16	GLY521	0.000	
127	   O	-6.655	-2.413	13.709	O.2	16	GLY521	0.000	
128	   N	-7.954	-3.096	10.684	N.3	17	HIS524	0.000	
129	  CA	-8.892	-4.055	11.293	C.3	17	HIS524	0.000	
130	   C	-9.886	-3.384	12.255	C.2	17	HIS524	0.000	
131	   O	-11.102	-3.597	12.189	O.2	17	HIS524	0.000	
132	  CB	-8.141	-5.159	12.038	C.3	17	HIS524	0.000	
133	  CG	-9.037	-6.234	12.571	C.2	17	HIS524	0.000	
134	 CD2	-9.507	-7.365	11.995	C.2	17	HIS524	0.000	
135	 ND1	-9.582	-6.193	13.836	N.2	17	HIS524	0.000	
136	 CE1	-10.336	-7.263	14.022	C.2	17	HIS524	0.000	
137	 NE2	-10.313	-7.986	12.919	N.pl3	17	HIS524	0.000	
138	   N	-9.370	-2.568	13.151	N.am	18	LEU525	0.000	
139	  CA	-10.244	-1.849	14.049	C.3	18	LEU525	0.000	
140	   C	-11.260	-1.035	13.237	C.2	18	LEU525	0.000	
141	   O	-12.452	-0.970	13.581	O.2	18	LEU525	0.000	
142	  CB	-9.418	-0.966	14.982	C.3	18	LEU525	0.000	
143	  CG	-10.228	-0.020	15.872	C.3	18	LEU525	0.000	
144	 CD1	-11.194	-0.824	16.730	C.3	18	LEU525	0.000	
145	 CD2	-9.311	0.847	16.732	C.3	18	LEU525	0.000	
146	   N	-13.961	-3.217	12.031	N.3	19	MET528	0.000	
147	  CA	-14.849	-3.535	13.150	C.3	19	MET528	0.000	
148	   C	-15.816	-2.375	13.438	C.2	19	MET528	0.000	
149	   O	-17.010	-2.582	13.656	O.2	19	MET528	0.000	
150	  CB	-14.055	-3.911	14.401	C.3	19	MET528	0.000	
151	  CG	-13.256	-5.234	14.293	C.3	19	MET528	0.000	
152	  SD	-14.156	-6.680	13.675	S.3	19	MET528	0.000	
153	  CE	-13.672	-6.783	11.961	C.3	19	MET528	0.000	
@<TRIPOS>BOND
1 1 2 1
2 2 3 1
3 2 5 1
4 3 4 2
5 5 6 1
6 6 7 1
7 7 8 1
8 9 10 1
9 10 11 1
10 10 13 1
11 11 12 2
12 11 17 1
13 13 14 1
14 14 15 1
15 14 16 1
16 17 18 1
17 18 19 1
18 18 21 1
19 19 20 2
20 21 22 1
21 21 23 1
22 24 25 1
23 25 26 1
24 25 28 1
25 26 27 2
26 26 32 1
27 28 29 1
28 29 30 1
29 29 31 1
30 32 33 1
31 33 34 1
32 33 36 1
33 34 35 2
34 37 38 1
35 38 39 1
36 38 41 1
37 39 40 2
38 41 42 1
39 42 43 1
40 43 44 2
41 43 45 1
42 46 47 1
43 47 48 1
44 47 50 1
45 48 49 2
46 50 51 1
47 51 52 1
48 51 53 1
49 54 55 1
50 55 56 1
51 55 58 1
52 56 57 2
53 56 62 1
54 58 59 1
55 59 60 1
56 59 61 1
57 62 63 1
58 63 64 1
59 63 66 1
60 64 65 2
61 66 67 1
62 67 68 1
63 68 69 1
64 70 71 1
65 71 72 1
66 71 74 1
67 72 73 2
68 74 75 1
69 75 76 1
70 75 77 1
71 78 79 1
72 79 80 1
73 79 82 1
74 80 81 2
75 82 83 1
76 83 84 1
77 84 85 1
78 85 86 1
79 86 87 2
80 86 88 1
81 89 90 1
82 90 91 1
83 90 93 1
84 91 92 2
85 93 94 1
86 94 95 2
87 94 96 1
88 95 97 1
89 96 98 2
90 97 99 2
91 98 99 1
92 100 101 1
93 101 102 1
94 101 104 1
95 102 103 2
96 104 105 1
97 105 106 1
98 106 107 1
99 108 109 1
100 109 110 1
101 109 112 1
102 110 111 2
103 112 113 1
104 112 114 1
105 113 115 1
106 116 117 1
107 117 118 1
108 117 120 1
109 118 119 2
110 120 121 1
111 121 122 1
112 121 123 1
113 124 125 1
114 125 126 1
115 126 127 2
116 128 129 1
117 129 130 1
118 129 132 1
119 130 131 2
120 130 138 1
121 132 133 1
122 133 134 2
123 133 135 1
124 134 137 1
125 135 136 2
126 136 137 1
127 138 139 1
128 139 140 1
129 139 142 1
130 140 141 2
131 142 143 1
132 143 144 1
133 143 145 1
134 146 147 1
135 147 148 1
136 147 150 1
137 148 149 2
138 150 151 1
139 151 152 1
140 152 153 1
@<TRIPOS>SUBSTRUCTURE
1	MET343	1	RESIDUE	1 A	MET
2	LEU346	9	RESIDUE	1 A	LEU
3	THR347	17	RESIDUE	1 A	THR
4	LEU349	24	RESIDUE	1 A	LEU
5	ALA350	32	RESIDUE	1 A	ALA
6	GLU353	37	RESIDUE	1 A	GLU
7	LEU384	46	RESIDUE	1 A	LEU
8	LEU387	54	RESIDUE	1 A	LEU
9	MET388	62	RESIDUE	1 A	MET
10	LEU391	70	RESIDUE	1 A	LEU
11	ARG394	78	RESIDUE	1 A	ARG
12	PHE404	89	RESIDUE	1 A	PHE
13	MET421	100	RESIDUE	1 A	MET
14	ILE424	108	RESIDUE	1 A	ILE
15	LEU428	116	RESIDUE	1 A	LEU
16	GLY521	124	RESIDUE	1 A	GLY
17	HIS524	128	RESIDUE	1 A	HIS
18	LEU525	138	RESIDUE	1 A	LEU
19	MET528	146	RESIDUE	1 A	MET
