# created with PyMOL 2.5.0
@<TRIPOS>MOLECULE
2qe4
178 168 21              
SMALL
USER_CHARGES
@<TRIPOS>ATOM
1	   N	-14.550	10.060	26.153	N.3	1	MET343	0.000	
2	  CA	-13.552	9.497	27.042	C.3	1	MET343	0.000	
3	   C	-14.144	8.277	27.749	C.2	1	MET343	0.000	
4	   O	-13.423	7.352	28.129	O.2	1	MET343	0.000	
5	  CB	-13.111	10.556	28.053	C.3	1	MET343	0.000	
6	  CG	-11.796	10.249	28.706	C.3	1	MET343	0.000	
7	  SD	-10.522	9.903	27.471	S.3	1	MET343	0.000	
8	  CE	-10.303	11.449	26.808	C.3	1	MET343	0.000	
9	   N	-14.336	5.218	24.970	N.3	2	LEU346	0.000	
10	  CA	-13.027	4.613	24.760	C.3	2	LEU346	0.000	
11	   C	-12.547	3.782	25.956	C.2	2	LEU346	0.000	
12	   O	-11.991	2.691	25.784	O.2	2	LEU346	0.000	
13	  CB	-11.986	5.697	24.445	C.3	2	LEU346	0.000	
14	  CG	-12.224	6.501	23.165	C.3	2	LEU346	0.000	
15	 CD1	-11.095	7.502	22.983	C.3	2	LEU346	0.000	
16	 CD2	-12.283	5.573	21.973	C.3	2	LEU346	0.000	
17	   N	-12.765	4.298	27.164	N.am	3	THR347	0.000	
18	  CA	-12.323	3.606	28.364	C.3	3	THR347	0.000	
19	   C	-13.197	2.390	28.636	C.2	3	THR347	0.000	
20	   O	-12.697	1.334	29.034	O.2	3	THR347	0.000	
21	  CB	-12.296	4.564	29.576	C.3	3	THR347	0.000	
22	 CG2	-11.281	5.674	29.345	C.3	3	THR347	0.000	
23	 OG1	-13.584	5.164	29.744	O.3	3	THR347	0.000	
24	   N	-14.680	0.572	26.409	N.3	4	LEU349	0.000	
25	  CA	-14.219	-0.403	25.429	C.3	4	LEU349	0.000	
26	   C	-12.876	-1.012	25.866	C.2	4	LEU349	0.000	
27	   O	-12.663	-2.223	25.762	O.2	4	LEU349	0.000	
28	  CB	-14.056	0.277	24.068	C.3	4	LEU349	0.000	
29	  CG	-13.471	-0.560	22.932	C.3	4	LEU349	0.000	
30	 CD1	-14.492	-1.600	22.436	C.3	4	LEU349	0.000	
31	 CD2	-13.075	0.385	21.794	C.3	4	LEU349	0.000	
32	   N	-11.975	-0.171	26.357	N.am	5	ALA350	0.000	
33	  CA	-10.666	-0.640	26.796	C.3	5	ALA350	0.000	
34	   C	-10.779	-1.633	27.946	C.2	5	ALA350	0.000	
35	   O	-10.164	-2.697	27.916	O.2	5	ALA350	0.000	
36	  CB	-9.789	0.554	27.211	C.3	5	ALA350	0.000	
37	   N	-11.792	-4.817	26.683	N.3	6	GLU353	0.000	
38	  CA	-10.750	-5.422	25.860	C.3	6	GLU353	0.000	
39	   C	-9.652	-6.016	26.730	C.2	6	GLU353	0.000	
40	   O	-9.137	-7.106	26.443	O.2	6	GLU353	0.000	
41	  CB	-10.129	-4.390	24.912	C.3	6	GLU353	0.000	
42	  CG	-11.022	-3.989	23.750	C.3	6	GLU353	0.000	
43	  CD	-10.256	-3.209	22.706	C.2	6	GLU353	0.000	
44	 OE1	-10.335	-1.957	22.710	O.co2	6	GLU353	0.000	
45	 OE2	-9.556	-3.858	21.892	O.co2	6	GLU353	0.000	
46	   N	0.131	-3.337	28.015	N.3	7	TRP383	0.000	
47	  CA	-1.290	-3.345	27.644	C.3	7	TRP383	0.000	
48	   C	-1.732	-2.265	26.673	C.2	7	TRP383	0.000	
49	   O	-2.571	-2.530	25.816	O.2	7	TRP383	0.000	
50	  CB	-2.206	-3.280	28.875	C.3	7	TRP383	0.000	
51	  CG	-2.182	-1.959	29.591	C.2	7	TRP383	0.000	
52	 CD1	-1.309	-1.577	30.565	C.2	7	TRP383	0.000	
53	 CD2	-3.082	-0.854	29.403	C.2	7	TRP383	0.000	
54	 CE2	-2.691	0.158	30.306	C.2	7	TRP383	0.000	
55	 CE3	-4.183	-0.624	28.561	C.2	7	TRP383	0.000	
56	 NE1	-1.608	-0.310	31.000	N.pl3	7	TRP383	0.000	
57	 CZ2	-3.361	1.382	30.400	C.2	7	TRP383	0.000	
58	 CZ3	-4.851	0.598	28.656	C.2	7	TRP383	0.000	
59	 CH2	-4.434	1.583	29.569	C.2	7	TRP383	0.000	
60	   N	-1.205	-1.049	26.793	N.am	8	LEU384	0.000	
61	  CA	-1.651	-0.012	25.864	C.3	8	LEU384	0.000	
62	   C	-1.019	-0.221	24.491	C.2	8	LEU384	0.000	
63	   O	-1.668	-0.014	23.474	O.2	8	LEU384	0.000	
64	  CB	-1.355	1.406	26.409	C.3	8	LEU384	0.000	
65	  CG	-1.806	2.613	25.556	C.3	8	LEU384	0.000	
66	 CD1	-3.284	2.469	25.188	C.3	8	LEU384	0.000	
67	 CD2	-1.591	3.934	26.312	C.3	8	LEU384	0.000	
68	   N	-3.240	-2.715	22.932	N.3	9	LEU387	0.000	
69	  CA	-4.504	-2.140	22.498	C.3	9	LEU387	0.000	
70	   C	-4.272	-1.324	21.217	C.2	9	LEU387	0.000	
71	   O	-4.982	-1.484	20.226	O.2	9	LEU387	0.000	
72	  CB	-5.077	-1.228	23.588	C.3	9	LEU387	0.000	
73	  CG	-5.710	-1.969	24.758	C.3	9	LEU387	0.000	
74	 CD1	-6.430	-0.976	25.653	C.3	9	LEU387	0.000	
75	 CD2	-6.682	-3.029	24.212	C.3	9	LEU387	0.000	
76	   N	-3.261	-0.462	21.231	N.am	10	MET388	0.000	
77	  CA	-2.965	0.373	20.072	C.3	10	MET388	0.000	
78	   C	-2.539	-0.387	18.813	C.2	10	MET388	0.000	
79	   O	-2.926	-0.001	17.710	O.2	10	MET388	0.000	
80	  CB	-1.901	1.409	20.426	C.3	10	MET388	0.000	
81	  CG	-2.354	2.454	21.442	C.3	10	MET388	0.000	
82	  SD	-0.996	3.615	21.814	S.3	10	MET388	0.000	
83	  CE	-1.935	5.181	22.166	C.3	10	MET388	0.000	
84	   N	-5.666	-1.669	17.395	N.3	11	LEU391	0.000	
85	  CA	-6.404	-0.555	16.813	C.3	11	LEU391	0.000	
86	   C	-5.808	-0.205	15.446	C.2	11	LEU391	0.000	
87	   O	-6.511	-0.096	14.443	O.2	11	LEU391	0.000	
88	  CB	-6.316	0.666	17.740	C.3	11	LEU391	0.000	
89	  CG	-6.841	1.990	17.169	C.3	11	LEU391	0.000	
90	 CD1	-8.322	1.846	16.865	C.3	11	LEU391	0.000	
91	 CD2	-6.610	3.133	18.167	C.3	11	LEU391	0.000	
92	   N	-6.773	-2.906	12.883	N.3	12	ARG394	0.000	
93	  CA	-8.096	-2.833	12.296	C.3	12	ARG394	0.000	
94	   C	-8.450	-1.499	11.659	C.2	12	ARG394	0.000	
95	   O	-9.569	-1.308	11.205	O.2	12	ARG394	0.000	
96	  CB	-9.174	-3.270	13.292	C.3	12	ARG394	0.000	
97	  CG	-9.105	-2.701	14.671	C.3	12	ARG394	0.000	
98	  CD	-10.234	-3.271	15.550	C.3	12	ARG394	0.000	
99	  NE	-10.417	-2.419	16.712	N.pl3	12	ARG394	0.000	
100	  CZ	-9.641	-2.457	17.790	C.cat	12	ARG394	0.000	
101	 NH1	-8.644	-3.335	17.851	N.pl3	12	ARG394	0.000	
102	 NH2	-9.821	-1.579	18.779	N.pl3	12	ARG394	0.000	
103	   N	-11.863	2.019	16.363	N.3	13	PHE404	0.000	
104	  CA	-11.812	1.564	17.744	C.3	13	PHE404	0.000	
105	   C	-12.731	0.357	17.868	C.2	13	PHE404	0.000	
106	   O	-12.519	-0.521	18.711	O.2	13	PHE404	0.000	
107	  CB	-12.268	2.677	18.683	C.3	13	PHE404	0.000	
108	  CG	-11.231	3.734	18.889	C.2	13	PHE404	0.000	
109	 CD1	-10.242	3.570	19.840	C.2	13	PHE404	0.000	
110	 CD2	-11.196	4.860	18.081	C.2	13	PHE404	0.000	
111	 CE1	-9.231	4.508	19.980	C.2	13	PHE404	0.000	
112	 CE2	-10.184	5.796	18.222	C.2	13	PHE404	0.000	
113	  CZ	-9.206	5.616	19.172	C.2	13	PHE404	0.000	
114	   N	-5.822	15.030	22.288	N.3	14	MET421	0.000	
115	  CA	-5.828	13.648	21.834	C.3	14	MET421	0.000	
116	   C	-5.614	13.576	20.334	C.2	14	MET421	0.000	
117	   O	-5.267	12.527	19.801	O.2	14	MET421	0.000	
118	  CB	-7.154	12.984	22.187	C.3	14	MET421	0.000	
119	  CG	-7.194	11.490	21.928	C.3	14	MET421	0.000	
120	  SD	-8.798	10.837	22.445	S.3	14	MET421	0.000	
121	  CE	-8.469	10.421	24.187	C.3	14	MET421	0.000	
122	   N	-2.253	12.202	19.471	N.3	15	ILE424	0.000	
123	  CA	-2.158	10.764	19.618	C.3	15	ILE424	0.000	
124	   C	-2.833	10.194	18.381	C.2	15	ILE424	0.000	
125	   O	-2.411	9.186	17.819	O.2	15	ILE424	0.000	
126	  CB	-2.914	10.258	20.840	C.3	15	ILE424	0.000	
127	 CG1	-2.500	11.049	22.089	C.3	15	ILE424	0.000	
128	 CG2	-2.654	8.757	20.998	C.3	15	ILE424	0.000	
129	 CD1	-1.036	10.925	22.473	C.3	15	ILE424	0.000	
130	   N	-3.888	10.871	17.958	N.am	16	PHE425	0.000	
131	  CA	-4.634	10.458	16.787	C.3	16	PHE425	0.000	
132	   C	-3.754	10.451	15.536	C.2	16	PHE425	0.000	
133	   O	-3.693	9.456	14.816	O.2	16	PHE425	0.000	
134	  CB	-5.818	11.397	16.602	C.3	16	PHE425	0.000	
135	  CG	-7.148	10.735	16.786	C.2	16	PHE425	0.000	
136	 CD1	-7.883	10.341	15.691	C.2	16	PHE425	0.000	
137	 CD2	-7.664	10.513	18.060	C.2	16	PHE425	0.000	
138	 CE1	-9.099	9.752	15.848	C.2	16	PHE425	0.000	
139	 CE2	-8.893	9.916	18.229	C.2	16	PHE425	0.000	
140	  CZ	-9.612	9.535	17.121	C.2	16	PHE425	0.000	
141	   N	-1.308	7.579	15.668	N.3	17	LEU428	0.000	
142	  CA	-2.011	6.325	15.394	C.3	17	LEU428	0.000	
143	   C	-2.318	6.150	13.914	C.2	17	LEU428	0.000	
144	   O	-2.102	5.078	13.351	O.2	17	LEU428	0.000	
145	  CB	-3.310	6.252	16.210	C.3	17	LEU428	0.000	
146	  CG	-3.096	6.046	17.713	C.3	17	LEU428	0.000	
147	 CD1	-4.432	6.122	18.427	C.3	17	LEU428	0.000	
148	 CD2	-2.418	4.692	17.973	C.3	17	LEU428	0.000	
149	   N	0.433	8.113	25.275	N.3	18	GLY521	0.000	
150	  CA	-0.900	7.712	25.681	C.3	18	GLY521	0.000	
151	   C	-1.076	7.693	27.187	C.2	18	GLY521	0.000	
152	   O	-2.084	8.178	27.692	O.2	18	GLY521	0.000	
153	   N	-1.240	11.169	28.601	N.3	19	HIS524	0.000	
154	  CA	-2.543	11.776	28.376	C.3	19	HIS524	0.000	
155	   C	-3.575	11.208	29.350	C.2	19	HIS524	0.000	
156	   O	-4.382	11.937	29.919	O.2	19	HIS524	0.000	
157	  CB	-2.978	11.524	26.933	C.3	19	HIS524	0.000	
158	  CG	-4.222	12.253	26.544	C.2	19	HIS524	0.000	
159	 CD2	-4.402	13.383	25.820	C.2	19	HIS524	0.000	
160	 ND1	-5.477	11.855	26.951	N.2	19	HIS524	0.000	
161	 CE1	-6.376	12.707	26.497	C.2	19	HIS524	0.000	
162	 NE2	-5.750	13.645	25.808	N.pl3	19	HIS524	0.000	
163	   N	-3.527	9.898	29.546	N.am	20	LEU525	0.000	
164	  CA	-4.441	9.216	30.442	C.3	20	LEU525	0.000	
165	   C	-4.178	9.639	31.889	C.2	20	LEU525	0.000	
166	   O	-5.101	9.954	32.630	O.2	20	LEU525	0.000	
167	  CB	-4.268	7.700	30.281	C.3	20	LEU525	0.000	
168	  CG	-5.301	6.814	30.975	C.3	20	LEU525	0.000	
169	 CD1	-6.696	7.257	30.553	C.3	20	LEU525	0.000	
170	 CD2	-5.058	5.353	30.624	C.3	20	LEU525	0.000	
171	   N	-5.569	13.122	33.214	N.3	21	MET528	0.000	
172	  CA	-6.942	13.398	33.624	C.3	21	MET528	0.000	
173	   C	-7.408	12.505	34.777	C.2	21	MET528	0.000	
174	   O	-7.564	13.029	35.904	O.2	21	MET528	0.000	
175	  CB	-7.850	13.205	32.419	C.3	21	MET528	0.000	
176	  CG	-7.262	13.802	31.152	C.3	21	MET528	0.000	
177	  SD	-7.854	12.990	29.660	S.3	21	MET528	0.000	
178	  CE	-9.039	14.204	29.050	C.3	21	MET528	0.000	
@<TRIPOS>BOND
1 1 2 1
2 2 3 1
3 2 5 1
4 3 4 2
5 5 6 1
6 6 7 1
7 7 8 1
8 9 10 1
9 10 11 1
10 10 13 1
11 11 12 2
12 11 17 1
13 13 14 1
14 14 15 1
15 14 16 1
16 17 18 1
17 18 19 1
18 18 21 1
19 19 20 2
20 21 22 1
21 21 23 1
22 24 25 1
23 25 26 1
24 25 28 1
25 26 27 2
26 26 32 1
27 28 29 1
28 29 30 1
29 29 31 1
30 32 33 1
31 33 34 1
32 33 36 1
33 34 35 2
34 37 38 1
35 38 39 1
36 38 41 1
37 39 40 2
38 41 42 1
39 42 43 1
40 43 44 2
41 43 45 1
42 46 47 1
43 47 48 1
44 47 50 1
45 48 49 2
46 48 60 1
47 50 51 1
48 51 52 2
49 51 53 1
50 52 56 1
51 53 54 2
52 53 55 1
53 54 57 1
54 55 58 2
55 54 56 1
56 57 59 2
57 58 59 1
58 60 61 1
59 61 62 1
60 61 64 1
61 62 63 2
62 64 65 1
63 65 66 1
64 65 67 1
65 68 69 1
66 69 70 1
67 69 72 1
68 70 71 2
69 70 76 1
70 72 73 1
71 73 74 1
72 73 75 1
73 76 77 1
74 77 78 1
75 77 80 1
76 78 79 2
77 80 81 1
78 81 82 1
79 82 83 1
80 84 85 1
81 85 86 1
82 85 88 1
83 86 87 2
84 88 89 1
85 89 90 1
86 89 91 1
87 92 93 1
88 93 94 1
89 93 96 1
90 94 95 2
91 96 97 1
92 97 98 1
93 98 99 1
94 99 100 1
95 100 101 2
96 100 102 1
97 103 104 1
98 104 105 1
99 104 107 1
100 105 106 2
101 107 108 1
102 108 109 2
103 108 110 1
104 109 111 1
105 110 112 2
106 111 113 2
107 112 113 1
108 114 115 1
109 115 116 1
110 115 118 1
111 116 117 2
112 118 119 1
113 119 120 1
114 120 121 1
115 122 123 1
116 123 124 1
117 123 126 1
118 124 125 2
119 124 130 1
120 126 127 1
121 126 128 1
122 127 129 1
123 130 131 1
124 131 132 1
125 131 134 1
126 132 133 2
127 134 135 1
128 135 136 2
129 135 137 1
130 136 138 1
131 137 139 2
132 138 140 2
133 139 140 1
134 141 142 1
135 142 143 1
136 142 145 1
137 143 144 2
138 145 146 1
139 146 147 1
140 146 148 1
141 149 150 1
142 150 151 1
143 151 152 2
144 153 154 1
145 154 155 1
146 154 157 1
147 155 156 2
148 155 163 1
149 157 158 1
150 158 159 2
151 158 160 1
152 159 162 1
153 160 161 2
154 161 162 1
155 163 164 1
156 164 165 1
157 164 167 1
158 165 166 2
159 167 168 1
160 168 169 1
161 168 170 1
162 171 172 1
163 172 173 1
164 172 175 1
165 173 174 2
166 175 176 1
167 176 177 1
168 177 178 1
@<TRIPOS>SUBSTRUCTURE
1	MET343	1	RESIDUE	1 A	MET
2	LEU346	9	RESIDUE	1 A	LEU
3	THR347	17	RESIDUE	1 A	THR
4	LEU349	24	RESIDUE	1 A	LEU
5	ALA350	32	RESIDUE	1 A	ALA
6	GLU353	37	RESIDUE	1 A	GLU
7	TRP383	46	RESIDUE	1 A	TRP
8	LEU384	60	RESIDUE	1 A	LEU
9	LEU387	68	RESIDUE	1 A	LEU
10	MET388	76	RESIDUE	1 A	MET
11	LEU391	84	RESIDUE	1 A	LEU
12	ARG394	92	RESIDUE	1 A	ARG
13	PHE404	103	RESIDUE	1 A	PHE
14	MET421	114	RESIDUE	1 A	MET
15	ILE424	122	RESIDUE	1 A	ILE
16	PHE425	130	RESIDUE	1 A	PHE
17	LEU428	141	RESIDUE	1 A	LEU
18	GLY521	149	RESIDUE	1 A	GLY
19	HIS524	153	RESIDUE	1 A	HIS
20	LEU525	163	RESIDUE	1 A	LEU
21	MET528	171	RESIDUE	1 A	MET
