# created with PyMOL 2.5.0
@<TRIPOS>MOLECULE
2qh6
209 196 25              
SMALL
USER_CHARGES
@<TRIPOS>ATOM
1	   N	-7.706	7.170	40.876	N.3	1	MET343	0.000	
2	  CA	-7.793	5.889	40.249	C.3	1	MET343	0.000	
3	   C	-8.172	4.761	41.192	C.2	1	MET343	0.000	
4	   O	-8.670	3.747	40.749	O.2	1	MET343	0.000	
5	  CB	-6.509	5.574	39.553	C.3	1	MET343	0.000	
6	  CG	-6.685	4.719	38.315	C.3	1	MET343	0.000	
7	  SD	-7.732	5.447	37.021	S.3	1	MET343	0.000	
8	  CE	-7.626	4.100	35.839	C.3	1	MET343	0.000	
9	   N	-12.013	5.171	41.293	N.3	2	LEU346	0.000	
10	  CA	-12.701	4.611	40.139	C.3	2	LEU346	0.000	
11	   C	-12.699	3.108	40.168	C.2	2	LEU346	0.000	
12	   O	-13.662	2.478	39.788	O.2	2	LEU346	0.000	
13	  CB	-12.107	5.135	38.832	C.3	2	LEU346	0.000	
14	  CG	-12.352	6.651	38.625	C.3	2	LEU346	0.000	
15	 CD1	-12.111	7.063	37.190	C.3	2	LEU346	0.000	
16	 CD2	-13.736	7.067	39.088	C.3	2	LEU346	0.000	
17	   N	-11.598	2.522	40.596	N.am	3	THR347	0.000	
18	  CA	-11.533	1.081	40.669	C.3	3	THR347	0.000	
19	   C	-12.358	0.494	41.847	C.2	3	THR347	0.000	
20	   O	-12.794	-0.636	41.777	O.2	3	THR347	0.000	
21	  CB	-10.060	0.510	40.658	C.3	3	THR347	0.000	
22	 CG2	-9.048	1.426	41.250	C.3	3	THR347	0.000	
23	 OG1	-10.020	-0.708	41.422	O.3	3	THR347	0.000	
24	   N	-15.288	1.830	42.930	N.3	4	LEU349	0.000	
25	  CA	-16.619	2.022	42.415	C.3	4	LEU349	0.000	
26	   C	-16.909	1.005	41.330	C.2	4	LEU349	0.000	
27	   O	-17.972	0.335	41.346	O.2	4	LEU349	0.000	
28	  CB	-16.737	3.425	41.874	C.3	4	LEU349	0.000	
29	  CG	-17.982	3.718	41.081	C.3	4	LEU349	0.000	
30	 CD1	-19.104	4.061	41.996	C.3	4	LEU349	0.000	
31	 CD2	-17.708	4.898	40.196	C.3	4	LEU349	0.000	
32	   N	-15.955	0.827	40.430	N.am	5	ALA350	0.000	
33	  CA	-16.195	-0.037	39.279	C.3	5	ALA350	0.000	
34	   C	-16.310	-1.467	39.694	C.2	5	ALA350	0.000	
35	   O	-17.124	-2.192	39.172	O.2	5	ALA350	0.000	
36	  CB	-15.116	0.134	38.245	C.3	5	ALA350	0.000	
37	   N	-19.592	-1.957	40.974	N.3	6	GLU353	0.000	
38	  CA	-20.590	-1.879	39.898	C.3	6	GLU353	0.000	
39	   C	-20.634	-3.156	39.128	C.2	6	GLU353	0.000	
40	   O	-21.715	-3.607	38.676	O.2	6	GLU353	0.000	
41	  CB	-20.274	-0.749	38.936	C.3	6	GLU353	0.000	
42	  CG	-20.487	0.577	39.582	C.3	6	GLU353	0.000	
43	  CD	-20.339	1.733	38.625	C.2	6	GLU353	0.000	
44	 OE1	-19.250	1.975	38.024	O.co2	6	GLU353	0.000	
45	 OE2	-21.352	2.421	38.476	O.co2	6	GLU353	0.000	
46	   N	-18.257	-5.825	29.662	N.3	7	TRP383	0.000	
47	  CA	-18.173	-5.108	30.947	C.3	7	TRP383	0.000	
48	   C	-17.855	-3.652	30.866	C.2	7	TRP383	0.000	
49	   O	-18.562	-2.887	31.424	O.2	7	TRP383	0.000	
50	  CB	-17.267	-5.772	31.953	C.3	7	TRP383	0.000	
51	  CG	-15.776	-5.631	31.745	C.2	7	TRP383	0.000	
52	 CD1	-14.963	-6.452	31.016	C.2	7	TRP383	0.000	
53	 CD2	-14.922	-4.645	32.331	C.2	7	TRP383	0.000	
54	 CE2	-13.604	-4.921	31.901	C.2	7	TRP383	0.000	
55	 CE3	-15.150	-3.531	33.157	C.2	7	TRP383	0.000	
56	 NE1	-13.655	-6.008	31.075	N.pl3	7	TRP383	0.000	
57	 CZ2	-12.527	-4.151	32.278	C.2	7	TRP383	0.000	
58	 CZ3	-14.068	-2.739	33.526	C.2	7	TRP383	0.000	
59	 CH2	-12.764	-3.064	33.094	C.2	7	TRP383	0.000	
60	   N	-16.826	-3.212	30.197	N.am	8	LEU384	0.000	
61	  CA	-16.495	-1.756	30.290	C.3	8	LEU384	0.000	
62	   C	-17.349	-0.880	29.380	C.2	8	LEU384	0.000	
63	   O	-17.433	0.315	29.592	O.2	8	LEU384	0.000	
64	  CB	-15.028	-1.486	30.048	C.3	8	LEU384	0.000	
65	  CG	-14.621	-0.045	29.948	C.3	8	LEU384	0.000	
66	 CD1	-14.868	0.729	31.239	C.3	8	LEU384	0.000	
67	 CD2	-13.142	-0.002	29.622	C.3	8	LEU384	0.000	
68	   N	-20.404	-0.349	31.807	N.3	9	LEU387	0.000	
69	  CA	-20.094	0.760	32.703	C.3	9	LEU387	0.000	
70	   C	-20.055	2.092	31.927	C.2	9	LEU387	0.000	
71	   O	-20.606	3.085	32.395	O.2	9	LEU387	0.000	
72	  CB	-18.778	0.522	33.473	C.3	9	LEU387	0.000	
73	  CG	-18.776	-0.749	34.309	C.3	9	LEU387	0.000	
74	 CD1	-17.386	-1.002	34.800	C.3	9	LEU387	0.000	
75	 CD2	-19.763	-0.535	35.463	C.3	9	LEU387	0.000	
76	   N	-19.441	2.137	30.736	N.am	10	MET388	0.000	
77	  CA	-19.438	3.442	30.048	C.3	10	MET388	0.000	
78	   C	-20.839	3.910	29.698	C.2	10	MET388	0.000	
79	   O	-21.194	5.054	29.948	O.2	10	MET388	0.000	
80	  CB	-18.530	3.470	28.836	C.3	10	MET388	0.000	
81	  CG	-17.157	3.837	29.216	C.3	10	MET388	0.000	
82	  SD	-16.109	3.084	28.040	S.3	10	MET388	0.000	
83	  CE	-14.472	3.775	28.447	C.3	10	MET388	0.000	
84	   N	-22.345	5.291	32.751	N.3	11	LEU391	0.000	
85	  CA	-21.783	6.592	33.129	C.3	11	LEU391	0.000	
86	   C	-22.383	7.692	32.229	C.2	11	LEU391	0.000	
87	   O	-22.943	8.690	32.693	O.2	11	LEU391	0.000	
88	  CB	-20.261	6.554	33.034	C.3	11	LEU391	0.000	
89	  CG	-19.498	7.857	33.020	C.3	11	LEU391	0.000	
90	 CD1	-19.495	8.489	34.398	C.3	11	LEU391	0.000	
91	 CD2	-18.078	7.587	32.593	C.3	11	LEU391	0.000	
92	   N	-26.040	8.471	33.113	N.3	12	ARG394	0.000	
93	  CA	-26.371	9.195	34.317	C.3	12	ARG394	0.000	
94	   C	-25.722	10.583	34.351	C.2	12	ARG394	0.000	
95	   O	-26.124	11.441	35.155	O.2	12	ARG394	0.000	
96	  CB	-25.991	8.394	35.526	C.3	12	ARG394	0.000	
97	  CG	-24.527	8.366	35.811	C.3	12	ARG394	0.000	
98	  CD	-24.272	7.470	37.019	C.3	12	ARG394	0.000	
99	  NE	-22.880	7.051	37.086	N.pl3	12	ARG394	0.000	
100	  CZ	-22.487	5.830	36.769	C.cat	12	ARG394	0.000	
101	 NH1	-23.393	4.937	36.384	N.pl3	12	ARG394	0.000	
102	 NH2	-21.210	5.514	36.835	N.pl3	12	ARG394	0.000	
103	   N	-18.962	14.378	33.967	N.3	13	LEU402	0.000	
104	  CA	-19.263	12.970	34.076	C.3	13	LEU402	0.000	
105	   C	-19.670	12.633	35.482	C.2	13	LEU402	0.000	
106	   O	-18.947	12.920	36.435	O.2	13	LEU402	0.000	
107	  CB	-18.048	12.166	33.700	C.3	13	LEU402	0.000	
108	  CG	-17.677	12.347	32.240	C.3	13	LEU402	0.000	
109	 CD1	-16.374	11.635	32.010	C.3	13	LEU402	0.000	
110	 CD2	-18.758	11.767	31.311	C.3	13	LEU402	0.000	
111	   N	-19.633	10.060	37.754	N.3	14	PHE404	0.000	
112	  CA	-19.202	8.758	38.200	C.3	14	PHE404	0.000	
113	   C	-20.085	8.238	39.302	C.2	14	PHE404	0.000	
114	   O	-20.610	7.147	39.179	O.2	14	PHE404	0.000	
115	  CB	-17.725	8.765	38.549	C.3	14	PHE404	0.000	
116	  CG	-16.837	8.784	37.320	C.2	14	PHE404	0.000	
117	 CD1	-16.448	7.578	36.688	C.2	14	PHE404	0.000	
118	 CD2	-16.423	9.997	36.761	C.2	14	PHE404	0.000	
119	 CE1	-15.629	7.599	35.487	C.2	14	PHE404	0.000	
120	 CE2	-15.628	10.029	35.581	C.2	14	PHE404	0.000	
121	  CZ	-15.209	8.842	34.958	C.2	14	PHE404	0.000	
122	   N	-4.764	11.616	35.196	N.3	15	VAL418	0.000	
123	  CA	-4.379	10.335	34.614	C.3	15	VAL418	0.000	
124	   C	-4.085	10.482	33.125	C.2	15	VAL418	0.000	
125	   O	-4.747	11.245	32.406	O.2	15	VAL418	0.000	
126	  CB	-5.465	9.248	34.831	C.3	15	VAL418	0.000	
127	 CG1	-4.961	7.886	34.375	C.3	15	VAL418	0.000	
128	 CG2	-5.905	9.188	36.289	C.3	15	VAL418	0.000	
129	   N	-6.590	9.897	29.935	N.3	16	MET421	0.000	
130	  CA	-7.925	9.814	30.464	C.3	16	MET421	0.000	
131	   C	-8.743	10.945	29.888	C.2	16	MET421	0.000	
132	   O	-9.935	10.803	29.722	O.2	16	MET421	0.000	
133	  CB	-7.897	9.907	31.993	C.3	16	MET421	0.000	
134	  CG	-9.269	10.160	32.610	C.3	16	MET421	0.000	
135	  SD	-9.276	10.391	34.389	S.3	16	MET421	0.000	
136	  CE	-11.003	10.033	34.758	C.3	16	MET421	0.000	
137	   N	-10.579	10.145	26.527	N.3	17	ILE424	0.000	
138	  CA	-11.734	9.282	26.748	C.3	17	ILE424	0.000	
139	   C	-12.841	10.109	27.337	C.2	17	ILE424	0.000	
140	   O	-13.949	10.140	26.793	O.2	17	ILE424	0.000	
141	  CB	-11.407	8.070	27.655	C.3	17	ILE424	0.000	
142	 CG1	-10.170	7.325	27.157	C.3	17	ILE424	0.000	
143	 CG2	-12.543	7.101	27.691	C.3	17	ILE424	0.000	
144	 CD1	-9.579	6.334	28.172	C.3	17	ILE424	0.000	
145	   N	-12.514	10.809	28.421	N.am	18	PHE425	0.000	
146	  CA	-13.358	11.851	28.994	C.3	18	PHE425	0.000	
147	   C	-14.163	12.590	27.913	C.2	18	PHE425	0.000	
148	   O	-15.381	12.613	27.972	O.2	18	PHE425	0.000	
149	  CB	-12.509	12.867	29.795	C.3	18	PHE425	0.000	
150	  CG	-13.297	13.610	30.824	C.2	18	PHE425	0.000	
151	 CD1	-14.212	14.614	30.445	C.2	18	PHE425	0.000	
152	 CD2	-13.208	13.250	32.173	C.2	18	PHE425	0.000	
153	 CE1	-15.024	15.253	31.408	C.2	18	PHE425	0.000	
154	 CE2	-13.977	13.896	33.140	C.2	18	PHE425	0.000	
155	  CZ	-14.897	14.891	32.771	C.2	18	PHE425	0.000	
156	   N	-16.667	10.330	25.990	N.3	19	LEU428	0.000	
157	  CA	-17.873	10.128	26.810	C.3	19	LEU428	0.000	
158	   C	-18.766	11.361	26.811	C.2	19	LEU428	0.000	
159	   O	-19.994	11.245	26.755	O.2	19	LEU428	0.000	
160	  CB	-17.505	9.777	28.221	C.3	19	LEU428	0.000	
161	  CG	-16.771	8.458	28.348	C.3	19	LEU428	0.000	
162	 CD1	-16.030	8.434	29.679	C.3	19	LEU428	0.000	
163	 CD2	-17.751	7.261	28.239	C.3	19	LEU428	0.000	
164	   N	-10.342	2.650	26.651	N.3	20	GLY521	0.000	
165	  CA	-10.229	2.677	28.091	C.3	20	GLY521	0.000	
166	   C	-9.528	1.427	28.527	C.2	20	GLY521	0.000	
167	   O	-8.749	1.462	29.480	O.2	20	GLY521	0.000	
168	   N	-9.795	0.329	27.804	N.am	21	MET522	0.000	
169	  CA	-9.237	-0.950	28.109	C.3	21	MET522	0.000	
170	   C	-7.738	-0.963	28.017	C.2	21	MET522	0.000	
171	   O	-7.079	-1.530	28.884	O.2	21	MET522	0.000	
172	  CB	-9.718	-1.964	27.129	C.3	21	MET522	0.000	
173	  CG	-9.598	-3.360	27.646	C.3	21	MET522	0.000	
174	  SD	-10.931	-3.622	28.858	S.3	21	MET522	0.000	
175	  CE	-12.368	-3.685	27.748	C.3	21	MET522	0.000	
176	   N	-5.770	1.539	28.171	N.3	22	HIS524	0.000	
177	  CA	-5.162	2.434	29.128	C.3	22	HIS524	0.000	
178	   C	-5.201	1.788	30.495	C.2	22	HIS524	0.000	
179	   O	-4.260	1.921	31.255	O.2	22	HIS524	0.000	
180	  CB	-5.811	3.810	29.160	C.3	22	HIS524	0.000	
181	  CG	-5.265	4.672	30.247	C.2	22	HIS524	0.000	
182	 CD2	-3.985	4.973	30.579	C.2	22	HIS524	0.000	
183	 ND1	-6.069	5.276	31.197	N.2	22	HIS524	0.000	
184	 CE1	-5.308	5.949	32.040	C.2	22	HIS524	0.000	
185	 NE2	-4.039	5.782	31.688	N.pl3	22	HIS524	0.000	
186	   N	-6.301	1.123	30.817	N.am	23	LEU525	0.000	
187	  CA	-6.337	0.251	31.983	C.3	23	LEU525	0.000	
188	   C	-5.179	-0.741	31.952	C.2	23	LEU525	0.000	
189	   O	-4.591	-1.060	32.984	O.2	23	LEU525	0.000	
190	  CB	-7.643	-0.550	32.024	C.3	23	LEU525	0.000	
191	  CG	-8.761	-0.173	33.000	C.3	23	LEU525	0.000	
192	 CD1	-8.357	1.023	33.880	C.3	23	LEU525	0.000	
193	 CD2	-10.088	0.049	32.284	C.3	23	LEU525	0.000	
194	   N	-5.362	-3.154	41.332	N.3	24	LEU536	0.000	
195	  CA	-6.694	-3.460	40.876	C.3	24	LEU536	0.000	
196	   C	-7.295	-4.643	41.667	C.2	24	LEU536	0.000	
197	   O	-6.567	-5.486	42.224	O.2	24	LEU536	0.000	
198	  CB	-6.654	-3.762	39.389	C.3	24	LEU536	0.000	
199	  CG	-6.177	-2.665	38.449	C.3	24	LEU536	0.000	
200	 CD1	-6.917	-2.833	37.127	C.3	24	LEU536	0.000	
201	 CD2	-6.447	-1.281	39.036	C.3	24	LEU536	0.000	
202	   N	-11.384	-7.395	38.796	N.3	25	LEU540	0.000	
203	  CA	-11.055	-6.483	37.758	C.3	25	LEU540	0.000	
204	   C	-9.830	-6.924	36.975	C.2	25	LEU540	0.000	
205	   O	-9.732	-6.656	35.779	O.2	25	LEU540	0.000	
206	  CB	-10.850	-5.100	38.342	C.3	25	LEU540	0.000	
207	  CG	-12.120	-4.249	38.323	C.3	25	LEU540	0.000	
208	 CD1	-11.878	-3.046	39.213	C.3	25	LEU540	0.000	
209	 CD2	-12.472	-3.804	36.874	C.3	25	LEU540	0.000	
@<TRIPOS>BOND
1 1 2 1
2 2 3 1
3 2 5 1
4 3 4 2
5 5 6 1
6 6 7 1
7 7 8 1
8 9 10 1
9 10 11 1
10 10 13 1
11 11 12 2
12 11 17 1
13 13 14 1
14 14 15 1
15 14 16 1
16 17 18 1
17 18 19 1
18 18 21 1
19 19 20 2
20 21 22 1
21 21 23 1
22 24 25 1
23 25 26 1
24 25 28 1
25 26 27 2
26 26 32 1
27 28 29 1
28 29 30 1
29 29 31 1
30 32 33 1
31 33 34 1
32 33 36 1
33 34 35 2
34 37 38 1
35 38 39 1
36 38 41 1
37 39 40 2
38 41 42 1
39 42 43 1
40 43 44 2
41 43 45 1
42 46 47 1
43 47 48 1
44 47 50 1
45 48 49 2
46 48 60 1
47 50 51 1
48 51 52 2
49 51 53 1
50 52 56 1
51 53 54 2
52 53 55 1
53 54 57 1
54 55 58 2
55 54 56 1
56 57 59 2
57 58 59 1
58 60 61 1
59 61 62 1
60 61 64 1
61 62 63 2
62 64 65 1
63 65 66 1
64 65 67 1
65 68 69 1
66 69 70 1
67 69 72 1
68 70 71 2
69 70 76 1
70 72 73 1
71 73 74 1
72 73 75 1
73 76 77 1
74 77 78 1
75 77 80 1
76 78 79 2
77 80 81 1
78 81 82 1
79 82 83 1
80 84 85 1
81 85 86 1
82 85 88 1
83 86 87 2
84 88 89 1
85 89 90 1
86 89 91 1
87 92 93 1
88 93 94 1
89 93 96 1
90 94 95 2
91 96 97 1
92 97 98 1
93 98 99 1
94 99 100 1
95 100 101 2
96 100 102 1
97 103 104 1
98 104 105 1
99 104 107 1
100 105 106 2
101 107 108 1
102 108 109 1
103 108 110 1
104 111 112 1
105 112 113 1
106 112 115 1
107 113 114 2
108 115 116 1
109 116 117 2
110 116 118 1
111 117 119 1
112 118 120 2
113 119 121 2
114 120 121 1
115 122 123 1
116 123 124 1
117 123 126 1
118 124 125 2
119 126 127 1
120 126 128 1
121 129 130 1
122 130 131 1
123 130 133 1
124 131 132 2
125 133 134 1
126 134 135 1
127 135 136 1
128 137 138 1
129 138 139 1
130 138 141 1
131 139 140 2
132 139 145 1
133 141 142 1
134 141 143 1
135 142 144 1
136 145 146 1
137 146 147 1
138 146 149 1
139 147 148 2
140 149 150 1
141 150 151 2
142 150 152 1
143 151 153 1
144 152 154 2
145 153 155 2
146 154 155 1
147 156 157 1
148 157 158 1
149 157 160 1
150 158 159 2
151 160 161 1
152 161 162 1
153 161 163 1
154 164 165 1
155 165 166 1
156 166 167 2
157 166 168 1
158 168 169 1
159 169 170 1
160 169 172 1
161 170 171 2
162 172 173 1
163 173 174 1
164 174 175 1
165 176 177 1
166 177 178 1
167 177 180 1
168 178 179 2
169 178 186 1
170 180 181 1
171 181 182 2
172 181 183 1
173 182 185 1
174 183 184 2
175 184 185 1
176 186 187 1
177 187 188 1
178 187 190 1
179 188 189 2
180 190 191 1
181 191 192 1
182 191 193 1
183 194 195 1
184 195 196 1
185 195 198 1
186 196 197 2
187 198 199 1
188 199 200 1
189 199 201 1
190 202 203 1
191 203 204 1
192 203 206 1
193 204 205 2
194 206 207 1
195 207 208 1
196 207 209 1
@<TRIPOS>SUBSTRUCTURE
1	MET343	1	RESIDUE	1 A	MET
2	LEU346	9	RESIDUE	1 A	LEU
3	THR347	17	RESIDUE	1 A	THR
4	LEU349	24	RESIDUE	1 A	LEU
5	ALA350	32	RESIDUE	1 A	ALA
6	GLU353	37	RESIDUE	1 A	GLU
7	TRP383	46	RESIDUE	1 A	TRP
8	LEU384	60	RESIDUE	1 A	LEU
9	LEU387	68	RESIDUE	1 A	LEU
10	MET388	76	RESIDUE	1 A	MET
11	LEU391	84	RESIDUE	1 A	LEU
12	ARG394	92	RESIDUE	1 A	ARG
13	LEU402	103	RESIDUE	1 A	LEU
14	PHE404	111	RESIDUE	1 A	PHE
15	VAL418	122	RESIDUE	1 A	VAL
16	MET421	129	RESIDUE	1 A	MET
17	ILE424	137	RESIDUE	1 A	ILE
18	PHE425	145	RESIDUE	1 A	PHE
19	LEU428	156	RESIDUE	1 A	LEU
20	GLY521	164	RESIDUE	1 A	GLY
21	MET522	168	RESIDUE	1 A	MET
22	HIS524	176	RESIDUE	1 A	HIS
23	LEU525	186	RESIDUE	1 A	LEU
24	LEU536	194	RESIDUE	1 A	LEU
25	LEU540	202	RESIDUE	1 A	LEU
