# created with PyMOL 2.5.0
@<TRIPOS>MOLECULE
3erd
186 175 22              
SMALL
USER_CHARGES
@<TRIPOS>ATOM
1	   N	-0.962	1.244	-11.681	N.3	1	MET343	0.000	
2	  CA	-0.639	-0.032	-11.059	C.3	1	MET343	0.000	
3	   C	0.239	-0.870	-11.976	C.2	1	MET343	0.000	
4	   O	1.170	-1.544	-11.524	O.2	1	MET343	0.000	
5	  CB	-1.917	-0.811	-10.746	C.3	1	MET343	0.000	
6	  CG	-2.665	-0.333	-9.503	C.3	1	MET343	0.000	
7	  SD	-1.753	-0.506	-7.940	S.3	1	MET343	0.000	
8	  CE	-1.472	-2.302	-7.883	C.3	1	MET343	0.000	
9	   N	3.869	0.808	-12.192	N.3	2	LEU346	0.000	
10	  CA	4.587	0.591	-10.938	C.3	2	LEU346	0.000	
11	   C	5.025	-0.854	-10.702	C.2	2	LEU346	0.000	
12	   O	6.174	-1.109	-10.344	O.2	2	LEU346	0.000	
13	  CB	3.732	1.062	-9.766	C.3	2	LEU346	0.000	
14	  CG	3.488	2.571	-9.676	C.3	2	LEU346	0.000	
15	 CD1	2.634	2.865	-8.454	C.3	2	LEU346	0.000	
16	 CD2	4.816	3.315	-9.597	C.3	2	LEU346	0.000	
17	   N	4.111	-1.797	-10.890	N.am	3	THR347	0.000	
18	  CA	4.433	-3.200	-10.676	C.3	3	THR347	0.000	
19	   C	5.371	-3.730	-11.759	C.2	3	THR347	0.000	
20	   O	6.201	-4.598	-11.493	O.2	3	THR347	0.000	
21	  CB	3.160	-4.060	-10.643	C.3	3	THR347	0.000	
22	 CG2	2.293	-3.675	-9.448	C.3	3	THR347	0.000	
23	 OG1	2.417	-3.866	-11.853	O.3	3	THR347	0.000	
24	   N	7.709	-1.992	-13.295	N.3	4	LEU349	0.000	
25	  CA	9.031	-1.508	-12.925	C.3	4	LEU349	0.000	
26	   C	9.562	-2.336	-11.742	C.2	4	LEU349	0.000	
27	   O	10.719	-2.758	-11.726	O.2	4	LEU349	0.000	
28	  CB	8.936	-0.026	-12.553	C.3	4	LEU349	0.000	
29	  CG	10.154	0.666	-11.943	C.3	4	LEU349	0.000	
30	 CD1	11.239	0.828	-12.987	C.3	4	LEU349	0.000	
31	 CD2	9.721	2.030	-11.395	C.3	4	LEU349	0.000	
32	   N	8.705	-2.586	-10.761	N.am	5	ALA350	0.000	
33	  CA	9.116	-3.351	-9.592	C.3	5	ALA350	0.000	
34	   C	9.572	-4.752	-9.989	C.2	5	ALA350	0.000	
35	   O	10.632	-5.213	-9.561	O.2	5	ALA350	0.000	
36	  CB	7.969	-3.436	-8.595	C.3	5	ALA350	0.000	
37	   N	12.905	-4.593	-11.390	N.3	6	GLU353	0.000	
38	  CA	13.887	-4.224	-10.378	C.3	6	GLU353	0.000	
39	   C	14.245	-5.445	-9.518	C.2	6	GLU353	0.000	
40	   O	15.402	-5.631	-9.125	O.2	6	GLU353	0.000	
41	  CB	13.325	-3.119	-9.476	C.3	6	GLU353	0.000	
42	  CG	13.300	-1.728	-10.100	C.3	6	GLU353	0.000	
43	  CD	12.826	-0.661	-9.113	C.2	6	GLU353	0.000	
44	 OE1	11.602	-0.542	-8.920	O.co2	6	GLU353	0.000	
45	 OE2	13.676	0.050	-8.530	O.co2	6	GLU353	0.000	
46	   N	12.258	-7.499	0.298	N.3	7	TRP383	0.000	
47	  CA	12.162	-6.910	-1.034	C.3	7	TRP383	0.000	
48	   C	11.449	-5.559	-1.168	C.2	7	TRP383	0.000	
49	   O	11.976	-4.659	-1.821	O.2	7	TRP383	0.000	
50	  CB	11.575	-7.920	-2.036	C.3	7	TRP383	0.000	
51	  CG	10.099	-8.198	-1.922	C.2	7	TRP383	0.000	
52	 CD1	9.505	-9.194	-1.202	C.2	7	TRP383	0.000	
53	 CD2	9.041	-7.508	-2.600	C.2	7	TRP383	0.000	
54	 CE2	7.831	-8.147	-2.247	C.2	7	TRP383	0.000	
55	 CE3	8.999	-6.414	-3.476	C.2	7	TRP383	0.000	
56	 NE1	8.142	-9.171	-1.393	N.pl3	7	TRP383	0.000	
57	 CZ2	6.593	-7.728	-2.733	C.2	7	TRP383	0.000	
58	 CZ3	7.767	-5.997	-3.963	C.2	7	TRP383	0.000	
59	 CH2	6.578	-6.657	-3.587	C.2	7	TRP383	0.000	
60	   N	10.275	-5.388	-0.564	N.am	8	LEU384	0.000	
61	  CA	9.589	-4.109	-0.715	C.3	8	LEU384	0.000	
62	   C	10.324	-3.015	0.058	C.2	8	LEU384	0.000	
63	   O	10.328	-1.857	-0.349	O.2	8	LEU384	0.000	
64	  CB	8.126	-4.209	-0.262	C.3	8	LEU384	0.000	
65	  CG	7.228	-2.995	-0.597	C.3	8	LEU384	0.000	
66	 CD1	7.483	-2.489	-2.024	C.3	8	LEU384	0.000	
67	 CD2	5.761	-3.389	-0.421	C.3	8	LEU384	0.000	
68	   N	13.103	-1.947	-2.175	N.3	9	LEU387	0.000	
69	  CA	12.613	-1.178	-3.313	C.3	9	LEU387	0.000	
70	   C	12.285	0.245	-2.841	C.2	9	LEU387	0.000	
71	   O	12.588	1.223	-3.522	O.2	9	LEU387	0.000	
72	  CB	11.349	-1.819	-3.893	C.3	9	LEU387	0.000	
73	  CG	11.504	-3.071	-4.761	C.3	9	LEU387	0.000	
74	 CD1	10.170	-3.375	-5.451	C.3	9	LEU387	0.000	
75	 CD2	12.614	-2.860	-5.790	C.3	9	LEU387	0.000	
76	   N	11.674	0.352	-1.665	N.am	10	MET388	0.000	
77	  CA	11.289	1.651	-1.127	C.3	10	MET388	0.000	
78	   C	12.455	2.547	-0.704	C.2	10	MET388	0.000	
79	   O	12.428	3.757	-0.959	O.2	10	MET388	0.000	
80	  CB	10.309	1.457	0.031	C.3	10	MET388	0.000	
81	  CG	8.919	1.032	-0.434	C.3	10	MET388	0.000	
82	  SD	7.753	0.772	0.909	S.3	10	MET388	0.000	
83	  CE	6.197	0.823	0.015	C.3	10	MET388	0.000	
84	   N	13.922	3.887	-3.789	N.3	11	LEU391	0.000	
85	  CA	13.025	4.893	-4.345	C.3	11	LEU391	0.000	
86	   C	13.209	6.222	-3.616	C.2	11	LEU391	0.000	
87	   O	13.426	7.266	-4.236	O.2	11	LEU391	0.000	
88	  CB	11.567	4.425	-4.213	C.3	11	LEU391	0.000	
89	  CG	10.479	5.498	-4.352	C.3	11	LEU391	0.000	
90	 CD1	10.561	6.168	-5.732	C.3	11	LEU391	0.000	
91	 CD2	9.122	4.859	-4.153	C.3	11	LEU391	0.000	
92	   N	16.402	7.888	-4.558	N.3	12	ARG394	0.000	
93	  CA	16.410	8.518	-5.881	C.3	12	ARG394	0.000	
94	   C	15.626	9.824	-5.872	C.2	12	ARG394	0.000	
95	   O	15.903	10.719	-6.668	O.2	12	ARG394	0.000	
96	  CB	15.764	7.620	-6.947	C.3	12	ARG394	0.000	
97	  CG	16.234	6.184	-7.020	C.3	12	ARG394	0.000	
98	  CD	15.822	5.555	-8.358	C.3	12	ARG394	0.000	
99	  NE	14.434	5.079	-8.373	N.pl3	12	ARG394	0.000	
100	  CZ	14.043	3.916	-7.858	C.cat	12	ARG394	0.000	
101	 NH1	14.932	3.112	-7.285	N.pl3	12	ARG394	0.000	
102	 NH2	12.772	3.549	-7.923	N.pl3	12	ARG394	0.000	
103	   N	10.314	7.321	-9.347	N.3	13	PHE404	0.000	
104	  CA	10.249	5.883	-9.557	C.3	13	PHE404	0.000	
105	   C	11.241	5.506	-10.647	C.2	13	PHE404	0.000	
106	   O	11.898	4.468	-10.579	O.2	13	PHE404	0.000	
107	  CB	8.834	5.474	-9.951	C.3	13	PHE404	0.000	
108	  CG	7.863	5.520	-8.816	C.2	13	PHE404	0.000	
109	 CD1	7.764	4.452	-7.924	C.2	13	PHE404	0.000	
110	 CD2	7.040	6.630	-8.630	C.2	13	PHE404	0.000	
111	 CE1	6.859	4.488	-6.868	C.2	13	PHE404	0.000	
112	 CE2	6.128	6.675	-7.572	C.2	13	PHE404	0.000	
113	  CZ	6.038	5.602	-6.691	C.2	13	PHE404	0.000	
114	   N	-3.446	4.636	-2.350	N.3	14	MET421	0.000	
115	  CA	-2.034	4.820	-2.651	C.3	14	MET421	0.000	
116	   C	-1.470	6.172	-2.216	C.2	14	MET421	0.000	
117	   O	-0.273	6.278	-1.962	O.2	14	MET421	0.000	
118	  CB	-1.795	4.602	-4.154	C.3	14	MET421	0.000	
119	  CG	-0.348	4.760	-4.606	C.3	14	MET421	0.000	
120	  SD	0.807	3.609	-3.813	S.3	14	MET421	0.000	
121	  CE	0.858	2.291	-5.008	C.3	14	MET421	0.000	
122	   N	0.372	6.041	1.053	N.3	15	ILE424	0.000	
123	  CA	1.713	5.486	0.924	C.3	15	ILE424	0.000	
124	   C	2.700	6.480	0.303	C.2	15	ILE424	0.000	
125	   O	3.861	6.545	0.716	O.2	15	ILE424	0.000	
126	  CB	1.689	4.193	0.103	C.3	15	ILE424	0.000	
127	 CG1	0.670	3.228	0.728	C.3	15	ILE424	0.000	
128	 CG2	3.104	3.586	0.040	C.3	15	ILE424	0.000	
129	 CD1	0.811	1.780	0.309	C.3	15	ILE424	0.000	
130	   N	2.244	7.260	-0.678	N.am	16	PHE425	0.000	
131	  CA	3.103	8.254	-1.323	C.3	16	PHE425	0.000	
132	   C	3.575	9.309	-0.320	C.2	16	PHE425	0.000	
133	   O	4.738	9.726	-0.344	O.2	16	PHE425	0.000	
134	  CB	2.356	8.951	-2.467	C.3	16	PHE425	0.000	
135	  CG	2.516	8.281	-3.809	C.2	16	PHE425	0.000	
136	 CD1	2.548	6.892	-3.917	C.2	16	PHE425	0.000	
137	 CD2	2.602	9.042	-4.970	C.2	16	PHE425	0.000	
138	 CE1	2.659	6.273	-5.163	C.2	16	PHE425	0.000	
139	 CE2	2.713	8.436	-6.221	C.2	16	PHE425	0.000	
140	  CZ	2.740	7.048	-6.318	C.2	16	PHE425	0.000	
141	   N	6.292	7.979	1.869	N.3	17	LEU428	0.000	
142	  CA	7.508	7.886	1.070	C.3	17	LEU428	0.000	
143	   C	8.151	9.261	0.905	C.2	17	LEU428	0.000	
144	   O	9.370	9.408	1.031	O.2	17	LEU428	0.000	
145	  CB	7.196	7.264	-0.296	C.3	17	LEU428	0.000	
146	  CG	6.919	5.757	-0.199	C.3	17	LEU428	0.000	
147	 CD1	6.301	5.236	-1.501	C.3	17	LEU428	0.000	
148	 CD2	8.221	5.035	0.116	C.3	17	LEU428	0.000	
149	   N	2.510	-1.021	2.321	N.3	18	GLY521	0.000	
150	  CA	2.538	-1.230	0.885	C.3	18	GLY521	0.000	
151	   C	2.164	-2.651	0.524	C.2	18	GLY521	0.000	
152	   O	1.420	-2.878	-0.428	O.2	18	GLY521	0.000	
153	   N	-1.450	-3.174	0.940	N.3	19	HIS524	0.000	
154	  CA	-2.092	-2.494	-0.169	C.3	19	HIS524	0.000	
155	   C	-2.001	-3.287	-1.470	C.2	19	HIS524	0.000	
156	   O	-2.987	-3.414	-2.205	O.2	19	HIS524	0.000	
157	  CB	-1.474	-1.118	-0.371	C.3	19	HIS524	0.000	
158	  CG	-2.226	-0.273	-1.347	C.2	19	HIS524	0.000	
159	 CD2	-3.230	0.617	-1.168	C.2	19	HIS524	0.000	
160	 ND1	-2.006	-0.336	-2.706	N.2	19	HIS524	0.000	
161	 CE1	-2.842	0.481	-3.322	C.2	19	HIS524	0.000	
162	 NE2	-3.596	1.071	-2.412	N.pl3	19	HIS524	0.000	
163	   N	-0.818	-3.819	-1.752	N.am	20	LEU525	0.000	
164	  CA	-0.604	-4.600	-2.962	C.3	20	LEU525	0.000	
165	   C	-1.496	-5.831	-2.951	C.2	20	LEU525	0.000	
166	   O	-2.104	-6.165	-3.964	O.2	20	LEU525	0.000	
167	  CB	0.860	-5.024	-3.074	C.3	20	LEU525	0.000	
168	  CG	1.309	-5.744	-4.346	C.3	20	LEU525	0.000	
169	 CD1	0.744	-5.046	-5.587	C.3	20	LEU525	0.000	
170	 CD2	2.832	-5.751	-4.391	C.3	20	LEU525	0.000	
171	   N	-4.883	-4.745	-3.904	N.3	21	MET528	0.000	
172	  CA	-5.053	-4.533	-5.335	C.3	21	MET528	0.000	
173	   C	-5.097	-5.870	-6.071	C.2	21	MET528	0.000	
174	   O	-5.715	-5.983	-7.127	O.2	21	MET528	0.000	
175	  CB	-3.909	-3.674	-5.882	C.3	21	MET528	0.000	
176	  CG	-3.977	-2.201	-5.477	C.3	21	MET528	0.000	
177	  SD	-5.665	-1.595	-5.275	S.3	21	MET528	0.000	
178	  CE	-5.572	0.006	-6.045	C.3	21	MET528	0.000	
179	   N	7.009	-10.908	-9.027	N.3	22	LEU540	0.000	
180	  CA	6.414	-9.969	-8.095	C.3	22	LEU540	0.000	
181	   C	5.342	-10.666	-7.273	C.2	22	LEU540	0.000	
182	   O	5.320	-10.552	-6.052	O.2	22	LEU540	0.000	
183	  CB	5.794	-8.790	-8.838	C.3	22	LEU540	0.000	
184	  CG	5.133	-7.753	-7.929	C.3	22	LEU540	0.000	
185	 CD1	6.098	-7.342	-6.818	C.3	22	LEU540	0.000	
186	 CD2	4.722	-6.554	-8.756	C.3	22	LEU540	0.000	
@<TRIPOS>BOND
1 1 2 1
2 2 3 1
3 2 5 1
4 3 4 2
5 5 6 1
6 6 7 1
7 7 8 1
8 9 10 1
9 10 11 1
10 10 13 1
11 11 12 2
12 11 17 1
13 13 14 1
14 14 15 1
15 14 16 1
16 17 18 1
17 18 19 1
18 18 21 1
19 19 20 2
20 21 22 1
21 21 23 1
22 24 25 1
23 25 26 1
24 25 28 1
25 26 27 2
26 26 32 1
27 28 29 1
28 29 30 1
29 29 31 1
30 32 33 1
31 33 34 1
32 33 36 1
33 34 35 2
34 37 38 1
35 38 39 1
36 38 41 1
37 39 40 2
38 41 42 1
39 42 43 1
40 43 44 2
41 43 45 1
42 46 47 1
43 47 48 1
44 47 50 1
45 48 49 2
46 48 60 1
47 50 51 1
48 51 52 2
49 51 53 1
50 52 56 1
51 53 54 2
52 53 55 1
53 54 57 1
54 55 58 2
55 54 56 1
56 57 59 2
57 58 59 1
58 60 61 1
59 61 62 1
60 61 64 1
61 62 63 2
62 64 65 1
63 65 66 1
64 65 67 1
65 68 69 1
66 69 70 1
67 69 72 1
68 70 71 2
69 70 76 1
70 72 73 1
71 73 74 1
72 73 75 1
73 76 77 1
74 77 78 1
75 77 80 1
76 78 79 2
77 80 81 1
78 81 82 1
79 82 83 1
80 84 85 1
81 85 86 1
82 85 88 1
83 86 87 2
84 88 89 1
85 89 90 1
86 89 91 1
87 92 93 1
88 93 94 1
89 93 96 1
90 94 95 2
91 96 97 1
92 97 98 1
93 98 99 1
94 99 100 1
95 100 101 2
96 100 102 1
97 103 104 1
98 104 105 1
99 104 107 1
100 105 106 2
101 107 108 1
102 108 109 2
103 108 110 1
104 109 111 1
105 110 112 2
106 111 113 2
107 112 113 1
108 114 115 1
109 115 116 1
110 115 118 1
111 116 117 2
112 118 119 1
113 119 120 1
114 120 121 1
115 122 123 1
116 123 124 1
117 123 126 1
118 124 125 2
119 124 130 1
120 126 127 1
121 126 128 1
122 127 129 1
123 130 131 1
124 131 132 1
125 131 134 1
126 132 133 2
127 134 135 1
128 135 136 2
129 135 137 1
130 136 138 1
131 137 139 2
132 138 140 2
133 139 140 1
134 141 142 1
135 142 143 1
136 142 145 1
137 143 144 2
138 145 146 1
139 146 147 1
140 146 148 1
141 149 150 1
142 150 151 1
143 151 152 2
144 153 154 1
145 154 155 1
146 154 157 1
147 155 156 2
148 155 163 1
149 157 158 1
150 158 159 2
151 158 160 1
152 159 162 1
153 160 161 2
154 161 162 1
155 163 164 1
156 164 165 1
157 164 167 1
158 165 166 2
159 167 168 1
160 168 169 1
161 168 170 1
162 171 172 1
163 172 173 1
164 172 175 1
165 173 174 2
166 175 176 1
167 176 177 1
168 177 178 1
169 179 180 1
170 180 181 1
171 180 183 1
172 181 182 2
173 183 184 1
174 184 185 1
175 184 186 1
@<TRIPOS>SUBSTRUCTURE
1	MET343	1	RESIDUE	1 A	MET
2	LEU346	9	RESIDUE	1 A	LEU
3	THR347	17	RESIDUE	1 A	THR
4	LEU349	24	RESIDUE	1 A	LEU
5	ALA350	32	RESIDUE	1 A	ALA
6	GLU353	37	RESIDUE	1 A	GLU
7	TRP383	46	RESIDUE	1 A	TRP
8	LEU384	60	RESIDUE	1 A	LEU
9	LEU387	68	RESIDUE	1 A	LEU
10	MET388	76	RESIDUE	1 A	MET
11	LEU391	84	RESIDUE	1 A	LEU
12	ARG394	92	RESIDUE	1 A	ARG
13	PHE404	103	RESIDUE	1 A	PHE
14	MET421	114	RESIDUE	1 A	MET
15	ILE424	122	RESIDUE	1 A	ILE
16	PHE425	130	RESIDUE	1 A	PHE
17	LEU428	141	RESIDUE	1 A	LEU
18	GLY521	149	RESIDUE	1 A	GLY
19	HIS524	153	RESIDUE	1 A	HIS
20	LEU525	163	RESIDUE	1 A	LEU
21	MET528	171	RESIDUE	1 A	MET
22	LEU540	179	RESIDUE	1 A	LEU
