# created with PyMOL 2.5.0
@<TRIPOS>MOLECULE
3ert
180 170 22              
SMALL
USER_CHARGES
@<TRIPOS>ATOM
1	   N	35.295	-7.183	30.936	N.3	1	MET343	0.000	
2	  CA	35.385	-6.693	29.562	C.3	1	MET343	0.000	
3	   C	34.866	-7.727	28.568	C.2	1	MET343	0.000	
4	   O	34.320	-7.373	27.523	O.2	1	MET343	0.000	
5	  CB	36.830	-6.309	29.223	C.3	1	MET343	0.000	
6	  CG	37.019	-5.736	27.816	C.3	1	MET343	0.000	
7	  SD	36.028	-4.251	27.439	S.3	1	MET343	0.000	
8	  CE	36.126	-3.335	28.987	C.3	1	MET343	0.000	
9	   N	31.011	-7.440	28.853	N.3	2	LEU346	0.000	
10	  CA	30.546	-6.211	28.216	C.3	2	LEU346	0.000	
11	   C	30.716	-6.248	26.704	C.2	2	LEU346	0.000	
12	   O	29.851	-5.780	25.967	O.2	2	LEU346	0.000	
13	  CB	31.293	-5.008	28.796	C.3	2	LEU346	0.000	
14	  CG	31.077	-4.753	30.294	C.3	2	LEU346	0.000	
15	 CD1	31.805	-3.481	30.688	C.3	2	LEU346	0.000	
16	 CD2	29.601	-4.631	30.613	C.3	2	LEU346	0.000	
17	   N	31.833	-6.802	26.246	N.am	3	THR347	0.000	
18	  CA	32.096	-6.907	24.818	C.3	3	THR347	0.000	
19	   C	31.051	-7.798	24.147	C.2	3	THR347	0.000	
20	   O	30.538	-7.475	23.071	O.2	3	THR347	0.000	
21	  CB	33.477	-7.512	24.555	C.3	3	THR347	0.000	
22	 CG2	33.654	-7.797	23.078	C.3	3	THR347	0.000	
23	 OG1	34.492	-6.594	24.983	O.3	3	THR347	0.000	
24	   N	28.085	-8.479	25.300	N.3	4	LEU349	0.000	
25	  CA	26.788	-7.826	25.418	C.3	4	LEU349	0.000	
26	   C	26.650	-6.770	24.321	C.2	4	LEU349	0.000	
27	   O	25.631	-6.709	23.628	O.2	4	LEU349	0.000	
28	  CB	26.646	-7.170	26.794	C.3	4	LEU349	0.000	
29	  CG	25.370	-6.349	27.035	C.3	4	LEU349	0.000	
30	 CD1	24.137	-7.234	26.865	C.3	4	LEU349	0.000	
31	 CD2	25.397	-5.753	28.438	C.3	4	LEU349	0.000	
32	   N	27.686	-5.947	24.165	N.am	5	ALA350	0.000	
33	  CA	27.683	-4.891	23.157	C.3	5	ALA350	0.000	
34	   C	27.474	-5.472	21.760	C.2	5	ALA350	0.000	
35	   O	26.641	-4.980	20.999	O.2	5	ALA350	0.000	
36	  CB	28.995	-4.109	23.211	C.3	5	ALA350	0.000	
37	   N	28.226	-6.515	21.427	N.am	6	ASP351	0.000	
38	  CA	28.105	-7.157	20.124	C.3	6	ASP351	0.000	
39	   C	26.671	-7.610	19.820	C.2	6	ASP351	0.000	
40	   O	26.205	-7.466	18.693	O.2	6	ASP351	0.000	
41	  CB	29.050	-8.360	20.034	C.3	6	ASP351	0.000	
42	  CG	30.511	-7.952	19.969	C.2	6	ASP351	0.000	
43	 OD1	30.794	-6.749	19.772	O.co2	6	ASP351	0.000	
44	 OD2	31.375	-8.840	20.116	O.co2	6	ASP351	0.000	
45	   N	23.907	-6.371	21.286	N.3	7	GLU353	0.000	
46	  CA	23.055	-5.177	21.259	C.3	7	GLU353	0.000	
47	   C	23.135	-4.456	19.919	C.2	7	GLU353	0.000	
48	   O	22.171	-3.828	19.468	O.2	7	GLU353	0.000	
49	  CB	23.474	-4.202	22.359	C.3	7	GLU353	0.000	
50	  CG	23.150	-4.660	23.767	C.3	7	GLU353	0.000	
51	  CD	23.420	-3.576	24.792	C.2	7	GLU353	0.000	
52	 OE1	22.500	-2.776	25.072	O.co2	7	GLU353	0.000	
53	 OE2	24.553	-3.524	25.312	O.co2	7	GLU353	0.000	
54	   N	27.311	4.603	17.616	N.3	8	TRP383	0.000	
55	  CA	27.025	3.354	18.317	C.3	8	TRP383	0.000	
56	   C	27.355	3.308	19.801	C.2	8	TRP383	0.000	
57	   O	26.523	2.868	20.584	O.2	8	TRP383	0.000	
58	  CB	27.669	2.173	17.578	C.3	8	TRP383	0.000	
59	  CG	29.130	2.055	17.763	C.2	8	TRP383	0.000	
60	 CD1	30.103	2.581	16.966	C.2	8	TRP383	0.000	
61	 CD2	29.798	1.348	18.804	C.2	8	TRP383	0.000	
62	 CE2	31.182	1.484	18.579	C.2	8	TRP383	0.000	
63	 CE3	29.359	0.609	19.912	C.2	8	TRP383	0.000	
64	 NE1	31.341	2.240	17.448	N.pl3	8	TRP383	0.000	
65	 CZ2	32.133	0.908	19.419	C.2	8	TRP383	0.000	
66	 CZ3	30.306	0.037	20.745	C.2	8	TRP383	0.000	
67	 CH2	31.676	0.190	20.496	C.2	8	TRP383	0.000	
68	   N	28.542	3.762	20.210	N.am	9	LEU384	0.000	
69	  CA	28.864	3.711	21.638	C.3	9	LEU384	0.000	
70	   C	28.074	4.731	22.452	C.2	9	LEU384	0.000	
71	   O	27.706	4.460	23.594	O.2	9	LEU384	0.000	
72	  CB	30.367	3.891	21.883	C.3	9	LEU384	0.000	
73	  CG	30.823	3.645	23.335	C.3	9	LEU384	0.000	
74	 CD1	30.272	2.305	23.853	C.3	9	LEU384	0.000	
75	 CD2	32.336	3.645	23.397	C.3	9	LEU384	0.000	
76	   N	24.812	3.072	23.021	N.3	10	LEU387	0.000	
77	  CA	24.867	2.031	24.052	C.3	10	LEU387	0.000	
78	   C	24.944	2.660	25.438	C.2	10	LEU387	0.000	
79	   O	24.287	2.206	26.385	O.2	10	LEU387	0.000	
80	  CB	26.093	1.130	23.864	C.3	10	LEU387	0.000	
81	  CG	26.068	0.193	22.655	C.3	10	LEU387	0.000	
82	 CD1	27.298	-0.709	22.707	C.3	10	LEU387	0.000	
83	 CD2	24.792	-0.629	22.652	C.3	10	LEU387	0.000	
84	   N	25.750	3.714	25.555	N.am	11	MET388	0.000	
85	  CA	25.923	4.387	26.834	C.3	11	MET388	0.000	
86	   C	24.662	5.095	27.320	C.2	11	MET388	0.000	
87	   O	24.340	5.024	28.504	O.2	11	MET388	0.000	
88	  CB	27.088	5.379	26.760	C.3	11	MET388	0.000	
89	  CG	28.439	4.718	26.748	C.3	11	MET388	0.000	
90	  SD	29.731	5.988	26.735	S.3	11	MET388	0.000	
91	  CE	31.134	5.045	27.078	C.3	11	MET388	0.000	
92	   N	22.433	2.549	28.699	N.3	12	LEU391	0.000	
93	  CA	22.956	2.091	29.984	C.3	12	LEU391	0.000	
94	   C	22.605	3.070	31.105	C.2	12	LEU391	0.000	
95	   O	22.155	2.671	32.185	O.2	12	LEU391	0.000	
96	  CB	24.476	1.936	29.898	C.3	12	LEU391	0.000	
97	  CG	25.206	1.655	31.209	C.3	12	LEU391	0.000	
98	 CD1	24.718	0.331	31.793	C.3	12	LEU391	0.000	
99	 CD2	26.708	1.620	30.958	C.3	12	LEU391	0.000	
100	   N	18.737	2.838	31.957	N.3	13	ARG394	0.000	
101	  CA	18.287	1.729	32.786	C.3	13	ARG394	0.000	
102	   C	18.911	1.698	34.180	C.2	13	ARG394	0.000	
103	   O	18.446	0.966	35.049	O.2	13	ARG394	0.000	
104	  CB	18.493	0.390	32.065	C.3	13	ARG394	0.000	
105	  CG	19.914	0.010	31.764	C.3	13	ARG394	0.000	
106	  CD	19.929	-1.131	30.747	C.3	13	ARG394	0.000	
107	  NE	21.282	-1.559	30.417	N.pl3	13	ARG394	0.000	
108	  CZ	21.864	-1.351	29.238	C.cat	13	ARG394	0.000	
109	 NH1	21.207	-0.716	28.280	N.pl3	13	ARG394	0.000	
110	 NH2	23.098	-1.782	29.021	N.pl3	13	ARG394	0.000	
111	   N	24.384	-2.892	33.734	N.3	14	PHE404	0.000	
112	  CA	24.835	-3.256	32.403	C.3	14	PHE404	0.000	
113	   C	23.809	-4.181	31.756	C.2	14	PHE404	0.000	
114	   O	23.625	-4.177	30.539	O.2	14	PHE404	0.000	
115	  CB	26.201	-3.929	32.493	C.3	14	PHE404	0.000	
116	  CG	27.305	-2.997	32.926	C.2	14	PHE404	0.000	
117	 CD1	27.848	-2.078	32.029	C.2	14	PHE404	0.000	
118	 CD2	27.795	-3.032	34.228	C.2	14	PHE404	0.000	
119	 CE1	28.864	-1.204	32.423	C.2	14	PHE404	0.000	
120	 CE2	28.815	-2.159	34.637	C.2	14	PHE404	0.000	
121	  CZ	29.350	-1.242	33.726	C.2	14	PHE404	0.000	
122	   N	38.463	-3.013	33.450	N.3	15	GLU419	0.000	
123	  CA	39.403	-2.328	32.570	C.3	15	GLU419	0.000	
124	   C	38.761	-1.280	31.662	C.2	15	GLU419	0.000	
125	   O	37.665	-1.480	31.130	O.2	15	GLU419	0.000	
126	  CB	40.149	-3.351	31.711	C.3	15	GLU419	0.000	
127	  CG	39.385	-3.779	30.468	C.3	15	GLU419	0.000	
128	  CD	40.178	-4.722	29.585	C.2	15	GLU419	0.000	
129	 OE1	40.431	-5.870	30.012	O.co2	15	GLU419	0.000	
130	 OE2	40.546	-4.314	28.462	O.co2	15	GLU419	0.000	
131	   N	39.465	-0.165	31.491	N.am	16	GLY420	0.000	
132	  CA	38.983	0.908	30.642	C.3	16	GLY420	0.000	
133	   C	37.895	1.768	31.254	C.2	16	GLY420	0.000	
134	   O	37.417	2.705	30.619	O.2	16	GLY420	0.000	
135	   N	37.503	1.471	32.488	N.am	17	MET421	0.000	
136	  CA	36.449	2.247	33.123	C.3	17	MET421	0.000	
137	   C	36.924	3.059	34.313	C.2	17	MET421	0.000	
138	   O	36.113	3.512	35.112	O.2	17	MET421	0.000	
139	  CB	35.306	1.326	33.554	C.3	17	MET421	0.000	
140	  CG	34.589	0.636	32.395	C.3	17	MET421	0.000	
141	  SD	32.928	0.103	32.845	S.3	17	MET421	0.000	
142	  CE	32.002	1.699	32.766	C.3	17	MET421	0.000	
143	   N	35.345	6.618	33.197	N.3	18	ILE424	0.000	
144	  CA	33.949	6.643	32.772	C.3	18	ILE424	0.000	
145	   C	32.890	6.034	33.686	C.2	18	ILE424	0.000	
146	   O	31.728	6.442	33.631	O.2	18	ILE424	0.000	
147	  CB	33.802	6.087	31.347	C.3	18	ILE424	0.000	
148	 CG1	34.203	4.617	31.296	C.3	18	ILE424	0.000	
149	 CG2	34.640	6.935	30.395	C.3	18	ILE424	0.000	
150	 CD1	33.857	3.955	29.978	C.3	18	ILE424	0.000	
151	   N	29.450	7.902	34.058	N.3	19	LEU428	0.000	
152	  CA	28.172	7.292	33.730	C.3	19	LEU428	0.000	
153	   C	27.210	7.411	34.916	C.2	19	LEU428	0.000	
154	   O	26.042	7.742	34.744	O.2	19	LEU428	0.000	
155	  CB	28.379	5.825	33.332	C.3	19	LEU428	0.000	
156	  CG	29.039	5.683	31.957	C.3	19	LEU428	0.000	
157	 CD1	29.677	4.304	31.782	C.3	19	LEU428	0.000	
158	 CD2	27.993	5.928	30.894	C.3	19	LEU428	0.000	
159	   N	35.704	6.118	26.140	N.3	20	GLY521	0.000	
160	  CA	35.562	4.678	26.002	C.3	20	GLY521	0.000	
161	   C	36.254	4.169	24.752	C.2	20	GLY521	0.000	
162	   O	36.923	3.128	24.774	O.2	20	GLY521	0.000	
163	   N	40.021	3.699	25.042	N.3	21	HIS524	0.000	
164	  CA	40.455	2.427	25.607	C.3	21	HIS524	0.000	
165	   C	40.290	1.281	24.613	C.2	21	HIS524	0.000	
166	   O	41.225	0.520	24.371	O.2	21	HIS524	0.000	
167	  CB	39.678	2.092	26.877	C.3	21	HIS524	0.000	
168	  CG	40.061	0.773	27.473	C.2	21	HIS524	0.000	
169	 CD2	41.192	0.375	28.104	C.2	21	HIS524	0.000	
170	 ND1	39.246	-0.337	27.412	N.2	21	HIS524	0.000	
171	 CE1	39.858	-1.362	27.979	C.2	21	HIS524	0.000	
172	 NE2	41.040	-0.956	28.407	N.pl3	21	HIS524	0.000	
173	   N	39.101	1.161	24.035	N.am	22	LEU525	0.000	
174	  CA	38.832	0.093	23.084	C.3	22	LEU525	0.000	
175	   C	39.859	0.057	21.954	C.2	22	LEU525	0.000	
176	   O	40.244	-1.016	21.487	O.2	22	LEU525	0.000	
177	  CB	37.417	0.241	22.514	C.3	22	LEU525	0.000	
178	  CG	36.268	0.108	23.526	C.3	22	LEU525	0.000	
179	 CD1	34.936	0.246	22.811	C.3	22	LEU525	0.000	
180	 CD2	36.342	-1.240	24.238	C.3	22	LEU525	0.000	
@<TRIPOS>BOND
1 1 2 1
2 2 3 1
3 2 5 1
4 3 4 2
5 5 6 1
6 6 7 1
7 7 8 1
8 9 10 1
9 10 11 1
10 10 13 1
11 11 12 2
12 11 17 1
13 13 14 1
14 14 15 1
15 14 16 1
16 17 18 1
17 18 19 1
18 18 21 1
19 19 20 2
20 21 22 1
21 21 23 1
22 24 25 1
23 25 26 1
24 25 28 1
25 26 27 2
26 26 32 1
27 28 29 1
28 29 30 1
29 29 31 1
30 32 33 1
31 33 34 1
32 33 36 1
33 34 35 2
34 34 37 1
35 37 38 1
36 38 39 1
37 38 41 1
38 39 40 2
39 41 42 1
40 42 43 2
41 42 44 1
42 45 46 1
43 46 47 1
44 46 49 1
45 47 48 2
46 49 50 1
47 50 51 1
48 51 52 2
49 51 53 1
50 54 55 1
51 55 56 1
52 55 58 1
53 56 57 2
54 56 68 1
55 58 59 1
56 59 60 2
57 59 61 1
58 60 64 1
59 61 62 2
60 61 63 1
61 62 65 1
62 63 66 2
63 62 64 1
64 65 67 2
65 66 67 1
66 68 69 1
67 69 70 1
68 69 72 1
69 70 71 2
70 72 73 1
71 73 74 1
72 73 75 1
73 76 77 1
74 77 78 1
75 77 80 1
76 78 79 2
77 78 84 1
78 80 81 1
79 81 82 1
80 81 83 1
81 84 85 1
82 85 86 1
83 85 88 1
84 86 87 2
85 88 89 1
86 89 90 1
87 90 91 1
88 92 93 1
89 93 94 1
90 93 96 1
91 94 95 2
92 96 97 1
93 97 98 1
94 97 99 1
95 100 101 1
96 101 102 1
97 101 104 1
98 102 103 2
99 104 105 1
100 105 106 1
101 106 107 1
102 107 108 1
103 108 109 2
104 108 110 1
105 111 112 1
106 112 113 1
107 112 115 1
108 113 114 2
109 115 116 1
110 116 117 2
111 116 118 1
112 117 119 1
113 118 120 2
114 119 121 2
115 120 121 1
116 122 123 1
117 123 124 1
118 123 126 1
119 124 125 2
120 124 131 1
121 126 127 1
122 127 128 1
123 128 129 2
124 128 130 1
125 131 132 1
126 132 133 1
127 133 134 2
128 133 135 1
129 135 136 1
130 136 137 1
131 136 139 1
132 137 138 2
133 139 140 1
134 140 141 1
135 141 142 1
136 143 144 1
137 144 145 1
138 144 147 1
139 145 146 2
140 147 148 1
141 147 149 1
142 148 150 1
143 151 152 1
144 152 153 1
145 152 155 1
146 153 154 2
147 155 156 1
148 156 157 1
149 156 158 1
150 159 160 1
151 160 161 1
152 161 162 2
153 163 164 1
154 164 165 1
155 164 167 1
156 165 166 2
157 165 173 1
158 167 168 1
159 168 169 2
160 168 170 1
161 169 172 1
162 170 171 2
163 171 172 1
164 173 174 1
165 174 175 1
166 174 177 1
167 175 176 2
168 177 178 1
169 178 179 1
170 178 180 1
@<TRIPOS>SUBSTRUCTURE
1	MET343	1	RESIDUE	1 A	MET
2	LEU346	9	RESIDUE	1 A	LEU
3	THR347	17	RESIDUE	1 A	THR
4	LEU349	24	RESIDUE	1 A	LEU
5	ALA350	32	RESIDUE	1 A	ALA
6	ASP351	37	RESIDUE	1 A	ASP
7	GLU353	45	RESIDUE	1 A	GLU
8	TRP383	54	RESIDUE	1 A	TRP
9	LEU384	68	RESIDUE	1 A	LEU
10	LEU387	76	RESIDUE	1 A	LEU
11	MET388	84	RESIDUE	1 A	MET
12	LEU391	92	RESIDUE	1 A	LEU
13	ARG394	100	RESIDUE	1 A	ARG
14	PHE404	111	RESIDUE	1 A	PHE
15	GLU419	122	RESIDUE	1 A	GLU
16	GLY420	131	RESIDUE	1 A	GLY
17	MET421	135	RESIDUE	1 A	MET
18	ILE424	143	RESIDUE	1 A	ILE
19	LEU428	151	RESIDUE	1 A	LEU
20	GLY521	159	RESIDUE	1 A	GLY
21	HIS524	163	RESIDUE	1 A	HIS
22	LEU525	173	RESIDUE	1 A	LEU
