# created with PyMOL 2.5.0
@<TRIPOS>MOLECULE
5ak2
209 200 25              
SMALL
USER_CHARGES
@<TRIPOS>ATOM
1	   N	28.840	16.503	3.891	N.3	1	MET343	0.000	
2	  CA	29.561	16.857	5.114	C.3	1	MET343	0.000	
3	   C	28.856	17.868	5.985	C.2	1	MET343	0.000	
4	   O	28.839	17.727	7.214	O.2	1	MET343	0.000	
5	  CB	30.983	17.372	4.795	C.3	1	MET343	0.000	
6	  CG	31.964	16.288	4.346	C.3	1	MET343	0.000	
7	  SD	31.869	14.692	5.209	S.3	1	MET343	0.000	
8	  CE	32.085	15.172	6.929	C.3	1	MET343	0.000	
9	   N	26.149	16.073	7.796	N.3	2	LEU346	0.000	
10	  CA	26.709	15.214	8.845	C.3	2	LEU346	0.000	
11	   C	27.173	16.025	10.072	C.2	2	LEU346	0.000	
12	   O	26.977	15.624	11.219	O.2	2	LEU346	0.000	
13	  CB	27.855	14.315	8.277	C.3	2	LEU346	0.000	
14	  CG	27.470	13.291	7.184	C.3	2	LEU346	0.000	
15	 CD1	28.567	12.296	6.821	C.3	2	LEU346	0.000	
16	 CD2	26.191	12.554	7.542	C.3	2	LEU346	0.000	
17	   N	27.816	17.158	9.805	N.am	3	THR347	0.000	
18	  CA	28.317	18.041	10.852	C.3	3	THR347	0.000	
19	   C	27.171	18.618	11.676	C.2	3	THR347	0.000	
20	   O	27.206	18.573	12.905	O.2	3	THR347	0.000	
21	  CB	29.166	19.184	10.248	C.3	3	THR347	0.000	
22	 CG2	29.778	20.087	11.322	C.3	3	THR347	0.000	
23	 OG1	30.242	18.601	9.528	O.3	3	THR347	0.000	
24	   N	24.343	17.308	12.103	N.3	4	LEU349	0.000	
25	  CA	23.800	16.219	12.888	C.3	4	LEU349	0.000	
26	   C	24.634	15.975	14.139	C.2	4	LEU349	0.000	
27	   O	24.092	15.941	15.229	O.2	4	LEU349	0.000	
28	  CB	23.660	14.949	12.056	C.3	4	LEU349	0.000	
29	  CG	23.143	13.709	12.807	C.3	4	LEU349	0.000	
30	 CD1	21.690	13.900	13.247	C.3	4	LEU349	0.000	
31	 CD2	23.302	12.438	11.985	C.3	4	LEU349	0.000	
32	   N	25.949	15.826	13.945	N.am	5	ALA350	0.000	
33	  CA	26.894	15.582	15.001	C.3	5	ALA350	0.000	
34	   C	26.824	16.704	16.023	C.2	5	ALA350	0.000	
35	   O	26.719	16.462	17.237	O.2	5	ALA350	0.000	
36	  CB	28.318	15.446	14.444	C.3	5	ALA350	0.000	
37	   N	26.879	17.932	15.527	N.am	6	ASP351	0.000	
38	  CA	26.726	19.089	16.404	C.3	6	ASP351	0.000	
39	   C	25.529	18.955	17.297	C.2	6	ASP351	0.000	
40	   O	25.643	19.111	18.523	O.2	6	ASP351	0.000	
41	  CB	26.569	20.374	15.608	C.3	6	ASP351	0.000	
42	  CG	27.863	20.858	15.009	C.2	6	ASP351	0.000	
43	 OD1	28.929	20.216	15.192	O.co2	6	ASP351	0.000	
44	 OD2	27.784	21.926	14.354	O.co2	6	ASP351	0.000	
45	   N	23.782	16.223	18.009	N.3	7	GLU353	0.000	
46	  CA	23.979	15.047	18.827	C.3	7	GLU353	0.000	
47	   C	24.832	15.344	20.066	C.2	7	GLU353	0.000	
48	   O	24.600	14.816	21.107	O.2	7	GLU353	0.000	
49	  CB	24.594	13.942	17.997	C.3	7	GLU353	0.000	
50	  CG	23.578	13.207	17.181	C.3	7	GLU353	0.000	
51	  CD	24.146	11.976	16.569	C.2	7	GLU353	0.000	
52	 OE1	24.798	12.129	15.483	O.co2	7	GLU353	0.000	
53	 OE2	23.962	10.891	17.183	O.co2	7	GLU353	0.000	
54	   N	25.788	16.221	19.897	N.am	8	LEU354	0.000	
55	  CA	26.759	16.607	20.892	C.3	8	LEU354	0.000	
56	   C	26.152	17.182	22.185	C.2	8	LEU354	0.000	
57	   O	26.577	16.826	23.307	O.2	8	LEU354	0.000	
58	  CB	27.696	17.623	20.264	C.3	8	LEU354	0.000	
59	  CG	29.144	17.559	20.635	C.3	8	LEU354	0.000	
60	 CD1	29.709	16.164	20.427	C.3	8	LEU354	0.000	
61	 CD2	29.919	18.596	19.808	C.3	8	LEU354	0.000	
62	   N	34.465	11.603	22.423	N.3	9	TRP383	0.000	
63	  CA	33.248	12.066	21.741	C.3	9	TRP383	0.000	
64	   C	32.998	11.387	20.368	C.2	9	TRP383	0.000	
65	   O	31.829	11.042	20.095	O.2	9	TRP383	0.000	
66	  CB	33.121	13.617	21.634	C.3	9	TRP383	0.000	
67	  CG	34.067	14.219	20.606	C.2	9	TRP383	0.000	
68	 CD1	35.301	14.710	20.843	C.2	9	TRP383	0.000	
69	 CD2	33.834	14.369	19.199	C.2	9	TRP383	0.000	
70	 CE2	34.990	14.941	18.649	C.2	9	TRP383	0.000	
71	 CE3	32.750	14.096	18.355	C.2	9	TRP383	0.000	
72	 NE1	35.866	15.149	19.680	N.pl3	9	TRP383	0.000	
73	 CZ2	35.119	15.218	17.270	C.2	9	TRP383	0.000	
74	 CZ3	32.868	14.385	17.014	C.2	9	TRP383	0.000	
75	 CH2	34.067	14.946	16.484	C.2	9	TRP383	0.000	
76	   N	34.039	11.198	19.531	N.am	10	LEU384	0.000	
77	  CA	33.812	10.672	18.152	C.3	10	LEU384	0.000	
78	   C	33.534	9.184	18.228	C.2	10	LEU384	0.000	
79	   O	32.712	8.677	17.459	O.2	10	LEU384	0.000	
80	  CB	34.941	11.000	17.166	C.3	10	LEU384	0.000	
81	  CG	34.725	10.556	15.701	C.3	10	LEU384	0.000	
82	 CD1	33.482	11.147	15.083	C.3	10	LEU384	0.000	
83	 CD2	35.874	10.903	14.806	C.3	10	LEU384	0.000	
84	   N	29.867	8.869	19.140	N.3	11	LEU387	0.000	
85	  CA	29.037	9.062	17.964	C.3	11	LEU387	0.000	
86	   C	29.005	7.807	17.128	C.2	11	LEU387	0.000	
87	   O	27.935	7.361	16.733	O.2	11	LEU387	0.000	
88	  CB	29.507	10.244	17.164	C.3	11	LEU387	0.000	
89	  CG	29.136	11.666	17.654	C.3	11	LEU387	0.000	
90	 CD1	29.504	12.653	16.546	C.3	11	LEU387	0.000	
91	 CD2	27.687	11.806	18.044	C.3	11	LEU387	0.000	
92	   N	30.167	7.220	16.922	N.am	12	MET388	0.000	
93	  CA	30.347	6.006	16.090	C.3	12	MET388	0.000	
94	   C	29.684	4.757	16.616	C.2	12	MET388	0.000	
95	   O	29.059	4.030	15.836	O.2	12	MET388	0.000	
96	  CB	31.837	5.707	15.883	C.3	12	MET388	0.000	
97	  CG	32.486	6.532	14.791	C.3	12	MET388	0.000	
98	  SD	34.310	6.347	14.687	S.3	12	MET388	0.000	
99	  CE	34.573	7.065	13.095	C.3	12	MET388	0.000	
100	   N	26.180	5.201	15.928	N.3	13	LEU391	0.000	
101	  CA	25.948	4.979	14.511	C.3	13	LEU391	0.000	
102	   C	25.871	3.451	14.254	C.2	13	LEU391	0.000	
103	   O	24.912	3.006	13.660	O.2	13	LEU391	0.000	
104	  CB	27.018	5.664	13.633	C.3	13	LEU391	0.000	
105	  CG	27.018	5.357	12.131	C.3	13	LEU391	0.000	
106	 CD1	25.691	5.697	11.507	C.3	13	LEU391	0.000	
107	 CD2	28.133	6.081	11.358	C.3	13	LEU391	0.000	
108	   N	22.660	1.859	15.501	N.3	14	ARG394	0.000	
109	  CA	21.475	2.176	14.723	C.3	14	ARG394	0.000	
110	   C	21.467	1.423	13.414	C.2	14	ARG394	0.000	
111	   O	20.408	1.139	12.874	O.2	14	ARG394	0.000	
112	  CB	21.384	3.679	14.421	C.3	14	ARG394	0.000	
113	  CG	21.146	4.501	15.649	C.3	14	ARG394	0.000	
114	  CD	20.865	5.948	15.334	C.3	14	ARG394	0.000	
115	  NE	21.940	6.657	14.616	N.pl3	14	ARG394	0.000	
116	  CZ	22.933	7.355	15.154	C.cat	14	ARG394	0.000	
117	 NH1	23.098	7.454	16.485	N.pl3	14	ARG394	0.000	
118	 NH2	23.771	7.996	14.351	N.pl3	14	ARG394	0.000	
119	   N	22.780	7.149	9.733	N.3	15	PHE404	0.000	
120	  CA	23.209	8.378	10.392	C.3	15	PHE404	0.000	
121	   C	22.003	9.008	11.093	C.2	15	PHE404	0.000	
122	   O	22.079	9.426	12.236	O.2	15	PHE404	0.000	
123	  CB	23.874	9.338	9.420	C.3	15	PHE404	0.000	
124	  CG	25.269	8.935	9.040	C.2	15	PHE404	0.000	
125	 CD1	25.499	8.071	7.975	C.2	15	PHE404	0.000	
126	 CD2	26.349	9.373	9.777	C.2	15	PHE404	0.000	
127	 CE1	26.783	7.680	7.648	C.2	15	PHE404	0.000	
128	 CE2	27.631	8.997	9.455	C.2	15	PHE404	0.000	
129	  CZ	27.855	8.147	8.383	C.2	15	PHE404	0.000	
130	   N	36.304	8.569	2.462	N.3	16	MET421	0.000	
131	  CA	35.172	8.341	3.316	C.3	16	MET421	0.000	
132	   C	34.761	6.886	3.263	C.2	16	MET421	0.000	
133	   O	34.279	6.366	4.241	O.2	16	MET421	0.000	
134	  CB	34.023	9.265	2.907	C.3	16	MET421	0.000	
135	  CG	33.024	9.569	4.009	C.3	16	MET421	0.000	
136	  SD	33.772	10.221	5.520	S.3	16	MET421	0.000	
137	  CE	34.358	11.803	4.972	C.3	16	MET421	0.000	
138	   N	36.371	4.485	6.006	N.3	17	ILE424	0.000	
139	  CA	35.776	4.615	7.331	C.3	17	ILE424	0.000	
140	   C	34.368	4.018	7.338	C.2	17	ILE424	0.000	
141	   O	33.958	3.361	8.295	O.2	17	ILE424	0.000	
142	  CB	35.861	6.073	7.837	C.3	17	ILE424	0.000	
143	 CG1	37.364	6.397	8.063	C.3	17	ILE424	0.000	
144	 CG2	35.112	6.244	9.160	C.3	17	ILE424	0.000	
145	 CD1	37.682	7.867	8.253	C.3	17	ILE424	0.000	
146	   N	33.650	4.243	6.257	N.am	18	PHE425	0.000	
147	  CA	32.373	3.634	6.023	C.3	18	PHE425	0.000	
148	   C	32.490	2.120	6.165	C.2	18	PHE425	0.000	
149	   O	31.724	1.511	6.873	O.2	18	PHE425	0.000	
150	  CB	31.897	3.949	4.598	C.3	18	PHE425	0.000	
151	  CG	30.892	5.051	4.494	C.2	18	PHE425	0.000	
152	 CD1	31.194	6.347	4.903	C.2	18	PHE425	0.000	
153	 CD2	29.657	4.815	3.906	C.2	18	PHE425	0.000	
154	 CE1	30.269	7.365	4.757	C.2	18	PHE425	0.000	
155	 CE2	28.738	5.829	3.744	C.2	18	PHE425	0.000	
156	  CZ	29.047	7.108	4.174	C.2	18	PHE425	0.000	
157	   N	33.092	1.048	9.599	N.3	19	LEU428	0.000	
158	  CA	31.842	1.205	10.355	C.3	19	LEU428	0.000	
159	   C	30.856	0.120	10.040	C.2	19	LEU428	0.000	
160	   O	30.205	-0.413	10.939	O.2	19	LEU428	0.000	
161	  CB	31.229	2.606	10.164	C.3	19	LEU428	0.000	
162	  CG	32.040	3.741	10.805	C.3	19	LEU428	0.000	
163	 CD1	31.705	5.092	10.240	C.3	19	LEU428	0.000	
164	 CD2	31.859	3.765	12.322	C.3	19	LEU428	0.000	
165	   N	41.220	7.404	12.620	N.3	20	LYS520	0.000	
166	  CA	41.120	7.580	11.179	C.3	20	LYS520	0.000	
167	   C	40.074	8.679	10.838	C.2	20	LYS520	0.000	
168	   O	40.323	9.534	9.999	O.2	20	LYS520	0.000	
169	  CB	40.753	6.268	10.509	C.3	20	LYS520	0.000	
170	  CG	41.719	5.108	10.760	C.3	20	LYS520	0.000	
171	  CD	43.165	5.431	10.313	C.3	20	LYS520	0.000	
172	  CE	43.822	4.213	9.676	C.3	20	LYS520	0.000	
173	  NZ	44.796	4.604	8.639	N.4	20	LYS520	0.000	
174	   N	38.926	8.669	11.524	N.am	21	GLY521	0.000	
175	  CA	37.925	9.734	11.409	C.3	21	GLY521	0.000	
176	   C	38.437	11.160	11.686	C.2	21	GLY521	0.000	
177	   O	38.147	12.093	10.938	O.2	21	GLY521	0.000	
178	   N	40.816	12.472	9.176	N.3	22	HIS524	0.000	
179	  CA	40.036	12.895	8.029	C.3	22	HIS524	0.000	
180	   C	39.387	14.284	8.228	C.2	22	HIS524	0.000	
181	   O	39.437	15.116	7.317	O.2	22	HIS524	0.000	
182	  CB	38.974	11.868	7.689	C.3	22	HIS524	0.000	
183	  CG	38.238	12.204	6.448	C.2	22	HIS524	0.000	
184	 CD2	37.303	13.154	6.197	C.2	22	HIS524	0.000	
185	 ND1	38.502	11.590	5.248	N.2	22	HIS524	0.000	
186	 CE1	37.735	12.127	4.314	C.2	22	HIS524	0.000	
187	 NE2	37.007	13.084	4.862	N.pl3	22	HIS524	0.000	
188	   N	38.796	14.518	9.396	N.am	23	LEU525	0.000	
189	  CA	38.149	15.792	9.711	C.3	23	LEU525	0.000	
190	   C	39.108	16.973	9.778	C.2	23	LEU525	0.000	
191	   O	38.762	18.065	9.322	O.2	23	LEU525	0.000	
192	  CB	37.353	15.708	11.027	C.3	23	LEU525	0.000	
193	  CG	36.137	14.776	11.035	C.3	23	LEU525	0.000	
194	 CD1	35.512	14.705	12.428	C.3	23	LEU525	0.000	
195	 CD2	35.106	15.150	9.979	C.3	23	LEU525	0.000	
196	   N	36.109	20.879	14.550	N.3	24	VAL534	0.000	
197	  CA	36.093	19.757	15.457	C.3	24	VAL534	0.000	
198	   C	36.110	20.278	16.885	C.2	24	VAL534	0.000	
199	   O	36.929	21.144	17.184	O.2	24	VAL534	0.000	
200	  CB	37.299	18.822	15.174	C.3	24	VAL534	0.000	
201	 CG1	37.979	18.320	16.434	C.3	24	VAL534	0.000	
202	 CG2	36.847	17.636	14.330	C.3	24	VAL534	0.000	
203	   N	35.239	19.749	17.761	N.am	25	PRO535	0.000	
204	  CA	35.293	20.073	19.185	C.3	25	PRO535	0.000	
205	   C	36.719	20.007	19.682	C.2	25	PRO535	0.000	
206	   O	37.439	19.061	19.391	O.2	25	PRO535	0.000	
207	  CB	34.442	18.959	19.851	C.3	25	PRO535	0.000	
208	  CG	33.447	18.616	18.825	C.3	25	PRO535	0.000	
209	  CD	34.101	18.848	17.473	C.3	25	PRO535	0.000	
@<TRIPOS>BOND
1 1 2 1
2 2 3 1
3 2 5 1
4 3 4 2
5 5 6 1
6 6 7 1
7 7 8 1
8 9 10 1
9 10 11 1
10 10 13 1
11 11 12 2
12 11 17 1
13 13 14 1
14 14 15 1
15 14 16 1
16 17 18 1
17 18 19 1
18 18 21 1
19 19 20 2
20 21 22 1
21 21 23 1
22 24 25 1
23 25 26 1
24 25 28 1
25 26 27 2
26 26 32 1
27 28 29 1
28 29 30 1
29 29 31 1
30 32 33 1
31 33 34 1
32 33 36 1
33 34 35 2
34 34 37 1
35 37 38 1
36 38 39 1
37 38 41 1
38 39 40 2
39 41 42 1
40 42 43 2
41 42 44 1
42 45 46 1
43 46 47 1
44 46 49 1
45 47 48 2
46 47 54 1
47 49 50 1
48 50 51 1
49 51 52 2
50 51 53 1
51 54 55 1
52 55 56 1
53 55 58 1
54 56 57 2
55 58 59 1
56 59 60 1
57 59 61 1
58 62 63 1
59 63 64 1
60 63 66 1
61 64 65 2
62 64 76 1
63 66 67 1
64 67 68 2
65 67 69 1
66 68 72 1
67 69 70 2
68 69 71 1
69 70 73 1
70 71 74 2
71 70 72 1
72 73 75 2
73 74 75 1
74 76 77 1
75 77 78 1
76 77 80 1
77 78 79 2
78 80 81 1
79 81 82 1
80 81 83 1
81 84 85 1
82 85 86 1
83 85 88 1
84 86 87 2
85 86 92 1
86 88 89 1
87 89 90 1
88 89 91 1
89 92 93 1
90 93 94 1
91 93 96 1
92 94 95 2
93 96 97 1
94 97 98 1
95 98 99 1
96 100 101 1
97 101 102 1
98 101 104 1
99 102 103 2
100 104 105 1
101 105 106 1
102 105 107 1
103 108 109 1
104 109 110 1
105 109 112 1
106 110 111 2
107 112 113 1
108 113 114 1
109 114 115 1
110 115 116 1
111 116 117 2
112 116 118 1
113 119 120 1
114 120 121 1
115 120 123 1
116 121 122 2
117 123 124 1
118 124 125 2
119 124 126 1
120 125 127 1
121 126 128 2
122 127 129 2
123 128 129 1
124 130 131 1
125 131 132 1
126 131 134 1
127 132 133 2
128 134 135 1
129 135 136 1
130 136 137 1
131 138 139 1
132 139 140 1
133 139 142 1
134 140 141 2
135 140 146 1
136 142 143 1
137 142 144 1
138 143 145 1
139 146 147 1
140 147 148 1
141 147 150 1
142 148 149 2
143 150 151 1
144 151 152 2
145 151 153 1
146 152 154 1
147 153 155 2
148 154 156 2
149 155 156 1
150 157 158 1
151 158 159 1
152 158 161 1
153 159 160 2
154 161 162 1
155 162 163 1
156 162 164 1
157 165 166 1
158 166 167 1
159 166 169 1
160 167 168 2
161 167 174 1
162 169 170 1
163 170 171 1
164 171 172 1
165 172 173 1
166 174 175 1
167 175 176 1
168 176 177 2
169 178 179 1
170 179 180 1
171 179 182 1
172 180 181 2
173 180 188 1
174 182 183 1
175 183 184 2
176 183 185 1
177 184 187 1
178 185 186 2
179 186 187 1
180 188 189 1
181 189 190 1
182 189 192 1
183 190 191 2
184 192 193 1
185 193 194 1
186 193 195 1
187 196 197 1
188 197 198 1
189 197 200 1
190 198 199 2
191 198 203 1
192 200 201 1
193 200 202 1
194 203 204 1
195 203 209 1
196 204 205 1
197 204 207 1
198 205 206 2
199 207 208 1
200 208 209 1
@<TRIPOS>SUBSTRUCTURE
1	MET343	1	RESIDUE	1 A	MET
2	LEU346	9	RESIDUE	1 A	LEU
3	THR347	17	RESIDUE	1 A	THR
4	LEU349	24	RESIDUE	1 A	LEU
5	ALA350	32	RESIDUE	1 A	ALA
6	ASP351	37	RESIDUE	1 A	ASP
7	GLU353	45	RESIDUE	1 A	GLU
8	LEU354	54	RESIDUE	1 A	LEU
9	TRP383	62	RESIDUE	1 A	TRP
10	LEU384	76	RESIDUE	1 A	LEU
11	LEU387	84	RESIDUE	1 A	LEU
12	MET388	92	RESIDUE	1 A	MET
13	LEU391	100	RESIDUE	1 A	LEU
14	ARG394	108	RESIDUE	1 A	ARG
15	PHE404	119	RESIDUE	1 A	PHE
16	MET421	130	RESIDUE	1 A	MET
17	ILE424	138	RESIDUE	1 A	ILE
18	PHE425	146	RESIDUE	1 A	PHE
19	LEU428	157	RESIDUE	1 A	LEU
20	LYS520	165	RESIDUE	1 A	LYS
21	GLY521	174	RESIDUE	1 A	GLY
22	HIS524	178	RESIDUE	1 A	HIS
23	LEU525	188	RESIDUE	1 A	LEU
24	VAL534	196	RESIDUE	1 A	VAL
25	PRO535	203	RESIDUE	1 A	PRO
