# created with PyMOL 2.5.0
@<TRIPOS>MOLECULE
5fqs
196 186 24              
SMALL
USER_CHARGES
@<TRIPOS>ATOM
1	   N	18.478	15.613	60.477	N.3	1	MET343	0.000	
2	  CA	17.918	15.805	61.825	C.3	1	MET343	0.000	
3	   C	18.952	15.785	62.926	C.2	1	MET343	0.000	
4	   O	18.822	16.540	63.865	O.2	1	MET343	0.000	
5	  CB	16.818	14.796	62.177	C.3	1	MET343	0.000	
6	  CG	15.912	15.234	63.349	C.3	1	MET343	0.000	
7	  SD	15.228	16.957	63.271	S.3	1	MET343	0.000	
8	  CE	14.892	16.969	61.518	C.3	1	MET343	0.000	
9	   N	20.684	19.235	62.718	N.3	2	LEU346	0.000	
10	  CA	19.732	20.278	63.202	C.3	2	LEU346	0.000	
11	   C	19.553	20.225	64.720	C.2	2	LEU346	0.000	
12	   O	19.521	21.301	65.404	O.2	2	LEU346	0.000	
13	  CB	18.431	20.160	62.447	C.3	2	LEU346	0.000	
14	  CG	18.561	20.511	60.943	C.3	2	LEU346	0.000	
15	 CD1	17.272	20.258	60.225	C.3	2	LEU346	0.000	
16	 CD2	18.962	21.985	60.740	C.3	2	LEU346	0.000	
17	   N	19.445	18.995	65.268	N.am	3	THR347	0.000	
18	  CA	19.355	18.828	66.723	C.3	3	THR347	0.000	
19	   C	20.607	19.284	67.436	C.2	3	THR347	0.000	
20	   O	20.544	19.944	68.454	O.2	3	THR347	0.000	
21	  CB	19.032	17.361	67.047	C.3	3	THR347	0.000	
22	 CG2	18.994	17.108	68.541	C.3	3	THR347	0.000	
23	 OG1	17.803	17.004	66.379	O.3	3	THR347	0.000	
24	   N	22.770	21.477	66.436	N.3	4	LEU349	0.000	
25	  CA	22.781	22.947	66.342	C.3	4	LEU349	0.000	
26	   C	21.837	23.629	67.356	C.2	4	LEU349	0.000	
27	   O	22.243	24.580	68.104	O.2	4	LEU349	0.000	
28	  CB	22.382	23.333	64.911	C.3	4	LEU349	0.000	
29	  CG	22.232	24.831	64.607	C.3	4	LEU349	0.000	
30	 CD1	23.522	25.602	64.808	C.3	4	LEU349	0.000	
31	 CD2	21.676	25.090	63.180	C.3	4	LEU349	0.000	
32	   N	20.612	23.120	67.426	N.am	5	ALA350	0.000	
33	  CA	19.643	23.587	68.405	C.3	5	ALA350	0.000	
34	   C	20.135	23.418	69.857	C.2	5	ALA350	0.000	
35	   O	19.975	24.331	70.650	O.2	5	ALA350	0.000	
36	  CB	18.302	22.878	68.226	C.3	5	ALA350	0.000	
37	   N	20.777	22.310	70.157	N.am	6	ASP351	0.000	
38	  CA	21.363	22.067	71.499	C.3	6	ASP351	0.000	
39	   C	22.358	23.153	71.862	C.2	6	ASP351	0.000	
40	   O	22.305	23.720	72.941	O.2	6	ASP351	0.000	
41	  CB	22.151	20.764	71.540	C.3	6	ASP351	0.000	
42	  CG	21.289	19.510	71.569	C.2	6	ASP351	0.000	
43	 OD1	20.100	19.635	71.849	O.co2	6	ASP351	0.000	
44	 OD2	21.861	18.376	71.357	O.co2	6	ASP351	0.000	
45	   N	22.697	26.198	70.400	N.3	7	GLU353	0.000	
46	  CA	21.993	27.457	70.475	C.3	7	GLU353	0.000	
47	   C	21.320	27.717	71.801	C.2	7	GLU353	0.000	
48	   O	21.219	28.859	72.242	O.2	7	GLU353	0.000	
49	  CB	20.984	27.598	69.333	C.3	7	GLU353	0.000	
50	  CG	21.594	27.790	67.971	C.3	7	GLU353	0.000	
51	  CD	20.524	28.058	66.928	C.2	7	GLU353	0.000	
52	 OE1	19.852	27.075	66.506	O.co2	7	GLU353	0.000	
53	 OE2	20.341	29.253	66.548	O.co2	7	GLU353	0.000	
54	   N	11.355	28.648	74.286	N.3	8	TRP383	0.000	
55	  CA	12.667	28.357	73.646	C.3	8	TRP383	0.000	
56	   C	12.541	28.094	72.131	C.2	8	TRP383	0.000	
57	   O	13.367	28.625	71.331	O.2	8	TRP383	0.000	
58	  CB	13.441	27.234	74.398	C.3	8	TRP383	0.000	
59	  CG	12.883	25.902	74.224	C.2	8	TRP383	0.000	
60	 CD1	11.981	25.328	74.987	C.2	8	TRP383	0.000	
61	 CD2	13.207	24.963	73.194	C.2	8	TRP383	0.000	
62	 CE2	12.375	23.855	73.370	C.2	8	TRP383	0.000	
63	 CE3	14.043	24.984	72.100	C.2	8	TRP383	0.000	
64	 NE1	11.661	24.093	74.507	N.pl3	8	TRP383	0.000	
65	 CZ2	12.386	22.751	72.515	C.2	8	TRP383	0.000	
66	 CZ3	14.072	23.868	71.248	C.2	8	TRP383	0.000	
67	 CH2	13.265	22.773	71.464	C.2	8	TRP383	0.000	
68	   N	11.554	27.344	71.710	N.am	9	LEU384	0.000	
69	  CA	11.432	27.002	70.281	C.3	9	LEU384	0.000	
70	   C	10.967	28.181	69.443	C.2	9	LEU384	0.000	
71	   O	11.480	28.441	68.330	O.2	9	LEU384	0.000	
72	  CB	10.601	25.730	70.124	C.3	9	LEU384	0.000	
73	  CG	10.539	25.261	68.593	C.3	9	LEU384	0.000	
74	 CD1	11.948	25.001	67.983	C.3	9	LEU384	0.000	
75	 CD2	9.700	23.973	68.505	C.3	9	LEU384	0.000	
76	   N	14.156	30.167	68.973	N.3	10	LEU387	0.000	
77	  CA	14.994	29.634	67.882	C.3	10	LEU387	0.000	
78	   C	14.381	29.927	66.493	C.2	10	LEU387	0.000	
79	   O	15.099	30.248	65.514	O.2	10	LEU387	0.000	
80	  CB	15.137	28.106	67.979	C.3	10	LEU387	0.000	
81	  CG	16.005	27.528	69.120	C.3	10	LEU387	0.000	
82	 CD1	16.067	26.009	68.981	C.3	10	LEU387	0.000	
83	 CD2	17.358	28.197	69.188	C.3	10	LEU387	0.000	
84	   N	13.079	29.786	66.418	N.am	11	MET388	0.000	
85	  CA	12.339	30.065	65.149	C.3	11	MET388	0.000	
86	   C	12.399	31.515	64.667	C.2	11	MET388	0.000	
87	   O	12.716	31.774	63.482	O.2	11	MET388	0.000	
88	  CB	10.939	29.515	65.206	C.3	11	MET388	0.000	
89	  CG	10.857	28.011	65.151	C.3	11	MET388	0.000	
90	  SD	9.092	27.546	65.316	S.3	11	MET388	0.000	
91	  CE	9.184	25.852	64.772	C.3	11	MET388	0.000	
92	   N	15.929	32.079	63.382	N.3	12	LEU391	0.000	
93	  CA	16.089	31.418	62.053	C.3	12	LEU391	0.000	
94	   C	15.444	32.271	60.944	C.2	12	LEU391	0.000	
95	   O	16.050	32.513	59.866	O.2	12	LEU391	0.000	
96	  CB	15.490	30.021	62.066	C.3	12	LEU391	0.000	
97	  CG	15.345	29.257	60.769	C.3	12	LEU391	0.000	
98	 CD1	16.758	28.950	60.286	C.3	12	LEU391	0.000	
99	 CD2	14.538	27.973	60.906	C.3	12	LEU391	0.000	
100	   N	17.578	35.392	60.302	N.3	13	ARG394	0.000	
101	  CA	18.793	35.045	59.555	C.3	13	ARG394	0.000	
102	   C	18.465	34.749	58.080	C.2	13	ARG394	0.000	
103	   O	19.354	34.845	57.227	O.2	13	ARG394	0.000	
104	  CB	19.471	33.754	60.100	C.3	13	ARG394	0.000	
105	  CG	20.106	33.809	61.438	C.3	13	ARG394	0.000	
106	  CD	20.970	32.574	61.677	C.3	13	ARG394	0.000	
107	  NE	20.350	31.246	61.826	N.pl3	13	ARG394	0.000	
108	  CZ	19.737	30.836	62.929	C.cat	13	ARG394	0.000	
109	 NH1	19.488	31.662	63.925	N.pl3	13	ARG394	0.000	
110	 NH2	19.307	29.600	63.000	N.pl3	13	ARG394	0.000	
111	   N	19.860	27.874	58.513	N.3	14	PHE404	0.000	
112	  CA	20.037	27.279	59.820	C.3	14	PHE404	0.000	
113	   C	21.392	27.661	60.381	C.2	14	PHE404	0.000	
114	   O	21.504	27.949	61.565	O.2	14	PHE404	0.000	
115	  CB	19.855	25.767	59.746	C.3	14	PHE404	0.000	
116	  CG	18.443	25.352	59.556	C.2	14	PHE404	0.000	
117	 CD1	17.572	25.315	60.673	C.2	14	PHE404	0.000	
118	 CD2	17.967	24.977	58.324	C.2	14	PHE404	0.000	
119	 CE1	16.256	24.977	60.526	C.2	14	PHE404	0.000	
120	 CE2	16.659	24.590	58.169	C.2	14	PHE404	0.000	
121	  CZ	15.779	24.624	59.287	C.2	14	PHE404	0.000	
122	   N	8.387	17.391	58.133	N.3	15	MET421	0.000	
123	  CA	9.227	18.554	58.294	C.3	15	MET421	0.000	
124	   C	8.910	19.612	57.224	C.2	15	MET421	0.000	
125	   O	9.059	20.783	57.439	O.2	15	MET421	0.000	
126	  CB	10.699	18.123	58.268	C.3	15	MET421	0.000	
127	  CG	11.665	19.295	58.416	C.3	15	MET421	0.000	
128	  SD	11.621	19.989	60.092	S.3	15	MET421	0.000	
129	  CE	12.765	18.853	60.836	C.3	15	MET421	0.000	
130	   N	6.569	22.399	58.209	N.3	16	ILE424	0.000	
131	  CA	7.167	23.367	59.149	C.3	16	ILE424	0.000	
132	   C	8.136	24.284	58.359	C.2	16	ILE424	0.000	
133	   O	8.088	25.539	58.517	O.2	16	ILE424	0.000	
134	  CB	7.825	22.644	60.337	C.3	16	ILE424	0.000	
135	 CG1	6.715	22.012	61.225	C.3	16	ILE424	0.000	
136	 CG2	8.644	23.615	61.192	C.3	16	ILE424	0.000	
137	 CD1	7.269	21.026	62.225	C.3	16	ILE424	0.000	
138	   N	7.952	28.482	58.067	N.3	17	LEU428	0.000	
139	  CA	9.090	29.335	58.425	C.3	17	LEU428	0.000	
140	   C	9.456	30.201	57.204	C.2	17	LEU428	0.000	
141	   O	9.715	31.411	57.341	O.2	17	LEU428	0.000	
142	  CB	10.272	28.466	58.862	C.3	17	LEU428	0.000	
143	  CG	10.052	27.777	60.184	C.3	17	LEU428	0.000	
144	 CD1	11.008	26.614	60.407	C.3	17	LEU428	0.000	
145	 CD2	10.275	28.743	61.341	C.3	17	LEU428	0.000	
146	   N	5.935	22.448	65.818	N.3	18	GLY521	0.000	
147	  CA	7.235	21.828	65.982	C.3	18	GLY521	0.000	
148	   C	7.390	21.010	67.254	C.2	18	GLY521	0.000	
149	   O	8.034	19.954	67.192	O.2	18	GLY521	0.000	
150	   N	5.992	17.640	66.712	N.3	19	HIS524	0.000	
151	  CA	7.012	16.803	66.009	C.3	19	HIS524	0.000	
152	   C	8.070	16.225	66.968	C.2	19	HIS524	0.000	
153	   O	8.239	15.015	67.040	O.2	19	HIS524	0.000	
154	  CB	7.624	17.586	64.885	C.3	19	HIS524	0.000	
155	  CG	8.486	16.779	63.981	C.2	19	HIS524	0.000	
156	 CD2	9.801	16.467	64.049	C.2	19	HIS524	0.000	
157	 ND1	8.024	16.265	62.784	N.2	19	HIS524	0.000	
158	 CE1	9.015	15.646	62.165	C.2	19	HIS524	0.000	
159	 NE2	10.103	15.758	62.912	N.pl3	19	HIS524	0.000	
160	   N	8.743	17.064	67.724	N.am	20	LEU525	0.000	
161	  CA	9.712	16.619	68.681	C.3	20	LEU525	0.000	
162	   C	9.196	15.590	69.711	C.2	20	LEU525	0.000	
163	   O	9.924	14.599	70.007	O.2	20	LEU525	0.000	
164	  CB	10.333	17.796	69.402	C.3	20	LEU525	0.000	
165	  CG	11.022	18.799	68.456	C.3	20	LEU525	0.000	
166	 CD1	11.575	19.914	69.331	C.3	20	LEU525	0.000	
167	 CD2	12.148	18.106	67.647	C.3	20	LEU525	0.000	
168	   N	16.574	12.371	74.811	N.3	21	ASN532	0.000	
169	  CA	17.613	13.329	74.325	C.3	21	ASN532	0.000	
170	   C	17.075	14.368	73.325	C.2	21	ASN532	0.000	
171	   O	17.818	14.921	72.483	O.2	21	ASN532	0.000	
172	  CB	18.792	12.567	73.681	C.3	21	ASN532	0.000	
173	  CG	19.613	11.800	74.698	C.2	21	ASN532	0.000	
174	 ND2	20.174	10.648	74.291	N.pl3	21	ASN532	0.000	
175	 OD1	19.751	12.245	75.845	O.2	21	ASN532	0.000	
176	   N	15.768	14.606	73.419	N.am	22	VAL533	0.000	
177	  CA	15.090	15.579	72.594	C.3	22	VAL533	0.000	
178	   C	14.044	16.332	73.451	C.2	22	VAL533	0.000	
179	   O	13.237	15.723	74.174	O.2	22	VAL533	0.000	
180	  CB	14.458	14.906	71.325	C.3	22	VAL533	0.000	
181	 CG1	13.253	15.685	70.803	C.3	22	VAL533	0.000	
182	 CG2	15.499	14.751	70.196	C.3	22	VAL533	0.000	
183	   N	14.063	17.657	73.294	N.am	23	VAL534	0.000	
184	  CA	13.329	18.636	74.095	C.3	23	VAL534	0.000	
185	   C	14.020	18.823	75.453	C.2	23	VAL534	0.000	
186	   O	14.066	17.860	76.263	O.2	23	VAL534	0.000	
187	  CB	11.857	18.286	74.367	C.3	23	VAL534	0.000	
188	 CG1	11.222	19.404	75.242	C.3	23	VAL534	0.000	
189	 CG2	11.089	18.102	73.070	C.3	23	VAL534	0.000	
190	   N	14.458	20.067	75.757	N.am	24	PRO535	0.000	
191	  CA	15.188	20.197	76.995	C.3	24	PRO535	0.000	
192	   C	14.253	20.035	78.185	C.2	24	PRO535	0.000	
193	   O	13.223	20.670	78.229	O.2	24	PRO535	0.000	
194	  CB	15.742	21.621	76.914	C.3	24	PRO535	0.000	
195	  CG	14.759	22.367	76.093	C.3	24	PRO535	0.000	
196	  CD	14.347	21.358	75.053	C.3	24	PRO535	0.000	
@<TRIPOS>BOND
1 1 2 1
2 2 3 1
3 2 5 1
4 3 4 2
5 5 6 1
6 6 7 1
7 7 8 1
8 9 10 1
9 10 11 1
10 10 13 1
11 11 12 2
12 11 17 1
13 13 14 1
14 14 15 1
15 14 16 1
16 17 18 1
17 18 19 1
18 18 21 1
19 19 20 2
20 21 22 1
21 21 23 1
22 24 25 1
23 25 26 1
24 25 28 1
25 26 27 2
26 26 32 1
27 28 29 1
28 29 30 1
29 29 31 1
30 32 33 1
31 33 34 1
32 33 36 1
33 34 35 2
34 34 37 1
35 37 38 1
36 38 39 1
37 38 41 1
38 39 40 2
39 41 42 1
40 42 43 2
41 42 44 1
42 45 46 1
43 46 47 1
44 46 49 1
45 47 48 2
46 49 50 1
47 50 51 1
48 51 52 2
49 51 53 1
50 54 55 1
51 55 56 1
52 55 58 1
53 56 57 2
54 56 68 1
55 58 59 1
56 59 60 2
57 59 61 1
58 60 64 1
59 61 62 2
60 61 63 1
61 62 65 1
62 63 66 2
63 62 64 1
64 65 67 2
65 66 67 1
66 68 69 1
67 69 70 1
68 69 72 1
69 70 71 2
70 72 73 1
71 73 74 1
72 73 75 1
73 76 77 1
74 77 78 1
75 77 80 1
76 78 79 2
77 78 84 1
78 80 81 1
79 81 82 1
80 81 83 1
81 84 85 1
82 85 86 1
83 85 88 1
84 86 87 2
85 88 89 1
86 89 90 1
87 90 91 1
88 92 93 1
89 93 94 1
90 93 96 1
91 94 95 2
92 96 97 1
93 97 98 1
94 97 99 1
95 100 101 1
96 101 102 1
97 101 104 1
98 102 103 2
99 104 105 1
100 105 106 1
101 106 107 1
102 107 108 1
103 108 109 2
104 108 110 1
105 111 112 1
106 112 113 1
107 112 115 1
108 113 114 2
109 115 116 1
110 116 117 2
111 116 118 1
112 117 119 1
113 118 120 2
114 119 121 2
115 120 121 1
116 122 123 1
117 123 124 1
118 123 126 1
119 124 125 2
120 126 127 1
121 127 128 1
122 128 129 1
123 130 131 1
124 131 132 1
125 131 134 1
126 132 133 2
127 134 135 1
128 134 136 1
129 135 137 1
130 138 139 1
131 139 140 1
132 139 142 1
133 140 141 2
134 142 143 1
135 143 144 1
136 143 145 1
137 146 147 1
138 147 148 1
139 148 149 2
140 150 151 1
141 151 152 1
142 151 154 1
143 152 153 2
144 152 160 1
145 154 155 1
146 155 156 2
147 155 157 1
148 156 159 1
149 157 158 2
150 158 159 1
151 160 161 1
152 161 162 1
153 161 164 1
154 162 163 2
155 164 165 1
156 165 166 1
157 165 167 1
158 168 169 1
159 169 170 1
160 169 172 1
161 170 171 2
162 170 176 1
163 172 173 1
164 173 174 1
165 173 175 2
166 176 177 1
167 177 178 1
168 177 180 1
169 178 179 2
170 178 183 1
171 180 181 1
172 180 182 1
173 183 184 1
174 184 185 1
175 184 187 1
176 185 186 2
177 185 190 1
178 187 188 1
179 187 189 1
180 190 191 1
181 190 196 1
182 191 192 1
183 191 194 1
184 192 193 2
185 194 195 1
186 195 196 1
@<TRIPOS>SUBSTRUCTURE
1	MET343	1	RESIDUE	1 A	MET
2	LEU346	9	RESIDUE	1 A	LEU
3	THR347	17	RESIDUE	1 A	THR
4	LEU349	24	RESIDUE	1 A	LEU
5	ALA350	32	RESIDUE	1 A	ALA
6	ASP351	37	RESIDUE	1 A	ASP
7	GLU353	45	RESIDUE	1 A	GLU
8	TRP383	54	RESIDUE	1 A	TRP
9	LEU384	68	RESIDUE	1 A	LEU
10	LEU387	76	RESIDUE	1 A	LEU
11	MET388	84	RESIDUE	1 A	MET
12	LEU391	92	RESIDUE	1 A	LEU
13	ARG394	100	RESIDUE	1 A	ARG
14	PHE404	111	RESIDUE	1 A	PHE
15	MET421	122	RESIDUE	1 A	MET
16	ILE424	130	RESIDUE	1 A	ILE
17	LEU428	138	RESIDUE	1 A	LEU
18	GLY521	146	RESIDUE	1 A	GLY
19	HIS524	150	RESIDUE	1 A	HIS
20	LEU525	160	RESIDUE	1 A	LEU
21	ASN532	168	RESIDUE	1 A	ASN
22	VAL533	176	RESIDUE	1 A	VAL
23	VAL534	183	RESIDUE	1 A	VAL
24	PRO535	190	RESIDUE	1 A	PRO
