# created with PyMOL 2.5.0
@<TRIPOS>MOLECULE
5fqt
204 194 25              
SMALL
USER_CHARGES
@<TRIPOS>ATOM
1	   N	18.034	15.648	60.837	N.3	1	MET343	0.000	
2	  CA	17.510	15.818	62.194	C.3	1	MET343	0.000	
3	   C	18.602	15.812	63.261	C.2	1	MET343	0.000	
4	   O	18.515	16.559	64.237	O.2	1	MET343	0.000	
5	  CB	16.428	14.782	62.501	C.3	1	MET343	0.000	
6	  CG	15.671	15.058	63.805	C.3	1	MET343	0.000	
7	  SD	14.774	16.679	64.060	S.3	1	MET343	0.000	
8	  CE	14.020	16.780	62.464	C.3	1	MET343	0.000	
9	   N	20.223	19.214	63.041	N.3	2	LEU346	0.000	
10	  CA	19.370	20.254	63.537	C.3	2	LEU346	0.000	
11	   C	19.263	20.192	65.087	C.2	2	LEU346	0.000	
12	   O	19.243	21.233	65.753	O.2	2	LEU346	0.000	
13	  CB	18.027	20.220	62.841	C.3	2	LEU346	0.000	
14	  CG	17.989	20.622	61.345	C.3	2	LEU346	0.000	
15	 CD1	16.589	20.473	60.790	C.3	2	LEU346	0.000	
16	 CD2	18.376	22.052	61.135	C.3	2	LEU346	0.000	
17	   N	19.295	18.986	65.636	N.am	3	THR347	0.000	
18	  CA	19.210	18.771	67.087	C.3	3	THR347	0.000	
19	   C	20.489	19.312	67.772	C.2	3	THR347	0.000	
20	   O	20.399	20.017	68.778	O.2	3	THR347	0.000	
21	  CB	19.026	17.287	67.405	C.3	3	THR347	0.000	
22	 CG2	19.121	17.035	68.943	C.3	3	THR347	0.000	
23	 OG1	17.760	16.799	66.834	O.3	3	THR347	0.000	
24	   N	22.537	21.541	66.680	N.3	4	LEU349	0.000	
25	  CA	22.563	23.005	66.543	C.3	4	LEU349	0.000	
26	   C	21.655	23.656	67.584	C.2	4	LEU349	0.000	
27	   O	22.099	24.545	68.338	O.2	4	LEU349	0.000	
28	  CB	22.163	23.395	65.093	C.3	4	LEU349	0.000	
29	  CG	21.958	24.894	64.773	C.3	4	LEU349	0.000	
30	 CD1	23.304	25.612	64.909	C.3	4	LEU349	0.000	
31	 CD2	21.396	25.105	63.349	C.3	4	LEU349	0.000	
32	   N	20.440	23.121	67.722	N.am	5	ALA350	0.000	
33	  CA	19.507	23.606	68.739	C.3	5	ALA350	0.000	
34	   C	20.045	23.454	70.176	C.2	5	ALA350	0.000	
35	   O	19.914	24.359	70.966	O.2	5	ALA350	0.000	
36	  CB	18.167	22.902	68.603	C.3	5	ALA350	0.000	
37	   N	20.691	22.326	70.468	N.am	6	ASP351	0.000	
38	  CA	21.346	22.063	71.781	C.3	6	ASP351	0.000	
39	   C	22.355	23.144	72.144	C.2	6	ASP351	0.000	
40	   O	22.342	23.679	73.258	O.2	6	ASP351	0.000	
41	  CB	22.138	20.773	71.706	C.3	6	ASP351	0.000	
42	  CG	21.310	19.578	71.851	C.2	6	ASP351	0.000	
43	 OD1	20.115	19.741	72.158	O.co2	6	ASP351	0.000	
44	 OD2	21.865	18.439	71.696	O.co2	6	ASP351	0.000	
45	   N	22.692	26.297	70.574	N.3	7	GLU353	0.000	
46	  CA	21.984	27.561	70.656	C.3	7	GLU353	0.000	
47	   C	21.295	27.801	72.001	C.2	7	GLU353	0.000	
48	   O	21.233	28.962	72.458	O.2	7	GLU353	0.000	
49	  CB	20.941	27.739	69.522	C.3	7	GLU353	0.000	
50	  CG	21.500	27.819	68.119	C.3	7	GLU353	0.000	
51	  CD	20.401	28.017	67.097	C.2	7	GLU353	0.000	
52	 OE1	19.697	27.006	66.794	O.co2	7	GLU353	0.000	
53	 OE2	20.263	29.200	66.625	O.co2	7	GLU353	0.000	
54	   N	11.330	28.726	74.454	N.3	8	TRP383	0.000	
55	  CA	12.675	28.457	73.810	C.3	8	TRP383	0.000	
56	   C	12.581	28.194	72.282	C.2	8	TRP383	0.000	
57	   O	13.390	28.783	71.502	O.2	8	TRP383	0.000	
58	  CB	13.413	27.369	74.550	C.3	8	TRP383	0.000	
59	  CG	12.866	26.011	74.389	C.2	8	TRP383	0.000	
60	 CD1	12.010	25.402	75.182	C.2	8	TRP383	0.000	
61	 CD2	13.219	25.071	73.366	C.2	8	TRP383	0.000	
62	 CE2	12.455	23.924	73.582	C.2	8	TRP383	0.000	
63	 CE3	14.045	25.119	72.244	C.2	8	TRP383	0.000	
64	 NE1	11.738	24.136	74.735	N.pl3	8	TRP383	0.000	
65	 CZ2	12.493	22.836	72.733	C.2	8	TRP383	0.000	
66	 CZ3	14.095	24.018	71.408	C.2	8	TRP383	0.000	
67	 CH2	13.329	22.904	71.656	C.2	8	TRP383	0.000	
68	   N	11.610	27.426	71.846	N.am	9	LEU384	0.000	
69	  CA	11.505	27.096	70.408	C.3	9	LEU384	0.000	
70	   C	11.006	28.267	69.585	C.2	9	LEU384	0.000	
71	   O	11.471	28.557	68.451	O.2	9	LEU384	0.000	
72	  CB	10.754	25.796	70.213	C.3	9	LEU384	0.000	
73	  CG	10.665	25.288	68.705	C.3	9	LEU384	0.000	
74	 CD1	12.046	25.017	68.106	C.3	9	LEU384	0.000	
75	 CD2	9.786	24.029	68.609	C.3	9	LEU384	0.000	
76	   N	14.195	30.298	69.155	N.3	10	LEU387	0.000	
77	  CA	15.008	29.771	68.067	C.3	10	LEU387	0.000	
78	   C	14.418	30.100	66.687	C.2	10	LEU387	0.000	
79	   O	15.161	30.469	65.746	O.2	10	LEU387	0.000	
80	  CB	15.193	28.262	68.203	C.3	10	LEU387	0.000	
81	  CG	15.999	27.703	69.382	C.3	10	LEU387	0.000	
82	 CD1	16.138	26.198	69.223	C.3	10	LEU387	0.000	
83	 CD2	17.406	28.351	69.412	C.3	10	LEU387	0.000	
84	   N	13.118	29.914	66.561	N.am	11	MET388	0.000	
85	  CA	12.376	30.172	65.267	C.3	11	MET388	0.000	
86	   C	12.414	31.648	64.793	C.2	11	MET388	0.000	
87	   O	12.694	31.925	63.596	O.2	11	MET388	0.000	
88	  CB	10.949	29.640	65.342	C.3	11	MET388	0.000	
89	  CG	10.936	28.148	65.324	C.3	11	MET388	0.000	
90	  SD	9.224	27.596	65.429	S.3	11	MET388	0.000	
91	  CE	9.428	25.935	64.838	C.3	11	MET388	0.000	
92	   N	15.871	32.274	63.432	N.3	12	LEU391	0.000	
93	  CA	16.027	31.640	62.082	C.3	12	LEU391	0.000	
94	   C	15.366	32.498	61.029	C.2	12	LEU391	0.000	
95	   O	15.932	32.768	59.937	O.2	12	LEU391	0.000	
96	  CB	15.448	30.179	62.062	C.3	12	LEU391	0.000	
97	  CG	15.327	29.445	60.712	C.3	12	LEU391	0.000	
98	 CD1	16.773	29.190	60.271	C.3	12	LEU391	0.000	
99	 CD2	14.585	28.121	60.866	C.3	12	LEU391	0.000	
100	   N	17.469	35.675	60.374	N.3	13	ARG394	0.000	
101	  CA	18.732	35.277	59.667	C.3	13	ARG394	0.000	
102	   C	18.430	34.913	58.206	C.2	13	ARG394	0.000	
103	   O	19.306	35.019	57.339	O.2	13	ARG394	0.000	
104	  CB	19.348	33.955	60.244	C.3	13	ARG394	0.000	
105	  CG	19.987	33.925	61.584	C.3	13	ARG394	0.000	
106	  CD	20.861	32.688	61.708	C.3	13	ARG394	0.000	
107	  NE	20.240	31.361	61.921	N.pl3	13	ARG394	0.000	
108	  CZ	19.714	30.957	63.066	C.cat	13	ARG394	0.000	
109	 NH1	19.583	31.785	64.098	N.pl3	13	ARG394	0.000	
110	 NH2	19.335	29.686	63.185	N.pl3	13	ARG394	0.000	
111	   N	19.756	27.997	58.617	N.3	14	PHE404	0.000	
112	  CA	19.843	27.378	59.931	C.3	14	PHE404	0.000	
113	   C	21.205	27.730	60.525	C.2	14	PHE404	0.000	
114	   O	21.311	28.052	61.694	O.2	14	PHE404	0.000	
115	  CB	19.649	25.863	59.811	C.3	14	PHE404	0.000	
116	  CG	18.208	25.442	59.670	C.2	14	PHE404	0.000	
117	 CD1	17.413	25.281	60.802	C.2	14	PHE404	0.000	
118	 CD2	17.666	25.196	58.458	C.2	14	PHE404	0.000	
119	 CE1	16.079	24.934	60.716	C.2	14	PHE404	0.000	
120	 CE2	16.365	24.821	58.346	C.2	14	PHE404	0.000	
121	  CZ	15.552	24.689	59.484	C.2	14	PHE404	0.000	
122	   N	8.121	17.600	58.277	N.3	15	MET421	0.000	
123	  CA	9.009	18.729	58.402	C.3	15	MET421	0.000	
124	   C	8.802	19.789	57.311	C.2	15	MET421	0.000	
125	   O	9.010	20.949	57.536	O.2	15	MET421	0.000	
126	  CB	10.458	18.234	58.385	C.3	15	MET421	0.000	
127	  CG	11.459	19.364	58.540	C.3	15	MET421	0.000	
128	  SD	11.697	19.707	60.293	S.3	15	MET421	0.000	
129	  CE	13.242	18.796	60.369	C.3	15	MET421	0.000	
130	   N	6.547	22.533	58.291	N.3	16	ILE424	0.000	
131	  CA	7.127	23.486	59.245	C.3	16	ILE424	0.000	
132	   C	8.057	24.427	58.478	C.2	16	ILE424	0.000	
133	   O	8.022	25.663	58.670	O.2	16	ILE424	0.000	
134	  CB	7.791	22.776	60.419	C.3	16	ILE424	0.000	
135	 CG1	6.714	22.065	61.270	C.3	16	ILE424	0.000	
136	 CG2	8.535	23.785	61.275	C.3	16	ILE424	0.000	
137	 CD1	7.220	21.321	62.494	C.3	16	ILE424	0.000	
138	   N	7.812	28.619	58.183	N.3	17	LEU428	0.000	
139	  CA	9.007	29.465	58.493	C.3	17	LEU428	0.000	
140	   C	9.418	30.342	57.296	C.2	17	LEU428	0.000	
141	   O	9.712	31.519	57.436	O.2	17	LEU428	0.000	
142	  CB	10.168	28.584	58.991	C.3	17	LEU428	0.000	
143	  CG	10.080	27.867	60.332	C.3	17	LEU428	0.000	
144	 CD1	11.085	26.741	60.433	C.3	17	LEU428	0.000	
145	 CD2	10.312	28.840	61.453	C.3	17	LEU428	0.000	
146	   N	6.001	22.383	65.996	N.3	18	GLY521	0.000	
147	  CA	7.324	21.765	66.183	C.3	18	GLY521	0.000	
148	   C	7.408	20.974	67.470	C.2	18	GLY521	0.000	
149	   O	7.926	19.808	67.470	O.2	18	GLY521	0.000	
150	   N	6.900	21.530	68.574	N.am	19	MET522	0.000	
151	  CA	6.871	20.765	69.817	C.3	19	MET522	0.000	
152	   C	6.171	19.427	69.667	C.2	19	MET522	0.000	
153	   O	6.651	18.413	70.209	O.2	19	MET522	0.000	
154	  CB	6.290	21.528	71.010	C.3	19	MET522	0.000	
155	  CG	7.101	22.689	71.552	C.3	19	MET522	0.000	
156	  SD	8.836	22.441	72.060	S.3	19	MET522	0.000	
157	  CE	8.583	21.488	73.539	C.3	19	MET522	0.000	
158	   N	5.950	17.540	66.988	N.3	20	HIS524	0.000	
159	  CA	6.950	16.651	66.327	C.3	20	HIS524	0.000	
160	   C	8.003	16.119	67.324	C.2	20	HIS524	0.000	
161	   O	8.171	14.934	67.475	O.2	20	HIS524	0.000	
162	  CB	7.582	17.406	65.169	C.3	20	HIS524	0.000	
163	  CG	8.483	16.596	64.307	C.2	20	HIS524	0.000	
164	 CD2	9.772	16.220	64.471	C.2	20	HIS524	0.000	
165	 ND1	8.111	16.165	63.048	N.2	20	HIS524	0.000	
166	 CE1	9.117	15.513	62.493	C.2	20	HIS524	0.000	
167	 NE2	10.132	15.525	63.340	N.pl3	20	HIS524	0.000	
168	   N	8.639	16.996	68.059	N.am	21	LEU525	0.000	
169	  CA	9.632	16.623	69.041	C.3	21	LEU525	0.000	
170	   C	9.119	15.636	70.121	C.2	21	LEU525	0.000	
171	   O	9.773	14.577	70.375	O.2	21	LEU525	0.000	
172	  CB	10.207	17.869	69.672	C.3	21	LEU525	0.000	
173	  CG	10.971	18.811	68.719	C.3	21	LEU525	0.000	
174	 CD1	11.536	19.964	69.528	C.3	21	LEU525	0.000	
175	 CD2	12.101	18.107	67.945	C.3	21	LEU525	0.000	
176	   N	16.731	12.653	75.058	N.3	22	ASN532	0.000	
177	  CA	17.740	13.642	74.602	C.3	22	ASN532	0.000	
178	   C	17.153	14.691	73.664	C.2	22	ASN532	0.000	
179	   O	17.879	15.509	73.087	O.2	22	ASN532	0.000	
180	  CB	18.899	12.924	73.899	C.3	22	ASN532	0.000	
181	  CG	19.729	12.089	74.856	C.2	22	ASN532	0.000	
182	 ND2	20.085	10.856	74.443	N.pl3	22	ASN532	0.000	
183	 OD1	20.051	12.546	75.961	O.2	22	ASN532	0.000	
184	   N	15.826	14.643	73.519	N.am	23	VAL533	0.000	
185	  CA	15.064	15.620	72.756	C.3	23	VAL533	0.000	
186	   C	14.046	16.310	73.705	C.2	23	VAL533	0.000	
187	   O	13.384	15.653	74.530	O.2	23	VAL533	0.000	
188	  CB	14.402	14.992	71.472	C.3	23	VAL533	0.000	
189	 CG1	13.132	15.743	71.043	C.3	23	VAL533	0.000	
190	 CG2	15.386	14.963	70.287	C.3	23	VAL533	0.000	
191	   N	13.971	17.639	73.549	N.am	24	VAL534	0.000	
192	  CA	13.266	18.604	74.410	C.3	24	VAL534	0.000	
193	   C	14.012	18.806	75.745	C.2	24	VAL534	0.000	
194	   O	14.110	17.847	76.520	O.2	24	VAL534	0.000	
195	  CB	11.756	18.254	74.665	C.3	24	VAL534	0.000	
196	 CG1	11.073	19.361	75.485	C.3	24	VAL534	0.000	
197	 CG2	11.025	18.082	73.344	C.3	24	VAL534	0.000	
198	   N	14.477	20.059	76.039	N.am	25	PRO535	0.000	
199	  CA	15.156	20.271	77.323	C.3	25	PRO535	0.000	
200	   C	14.223	20.145	78.510	C.2	25	PRO535	0.000	
201	   O	13.185	20.814	78.554	O.2	25	PRO535	0.000	
202	  CB	15.668	21.720	77.219	C.3	25	PRO535	0.000	
203	  CG	14.731	22.399	76.277	C.3	25	PRO535	0.000	
204	  CD	14.320	21.328	75.297	C.3	25	PRO535	0.000	
@<TRIPOS>BOND
1 1 2 1
2 2 3 1
3 2 5 1
4 3 4 2
5 5 6 1
6 6 7 1
7 7 8 1
8 9 10 1
9 10 11 1
10 10 13 1
11 11 12 2
12 11 17 1
13 13 14 1
14 14 15 1
15 14 16 1
16 17 18 1
17 18 19 1
18 18 21 1
19 19 20 2
20 21 22 1
21 21 23 1
22 24 25 1
23 25 26 1
24 25 28 1
25 26 27 2
26 26 32 1
27 28 29 1
28 29 30 1
29 29 31 1
30 32 33 1
31 33 34 1
32 33 36 1
33 34 35 2
34 34 37 1
35 37 38 1
36 38 39 1
37 38 41 1
38 39 40 2
39 41 42 1
40 42 43 2
41 42 44 1
42 45 46 1
43 46 47 1
44 46 49 1
45 47 48 2
46 49 50 1
47 50 51 1
48 51 52 2
49 51 53 1
50 54 55 1
51 55 56 1
52 55 58 1
53 56 57 2
54 56 68 1
55 58 59 1
56 59 60 2
57 59 61 1
58 60 64 1
59 61 62 2
60 61 63 1
61 62 65 1
62 63 66 2
63 62 64 1
64 65 67 2
65 66 67 1
66 68 69 1
67 69 70 1
68 69 72 1
69 70 71 2
70 72 73 1
71 73 74 1
72 73 75 1
73 76 77 1
74 77 78 1
75 77 80 1
76 78 79 2
77 78 84 1
78 80 81 1
79 81 82 1
80 81 83 1
81 84 85 1
82 85 86 1
83 85 88 1
84 86 87 2
85 88 89 1
86 89 90 1
87 90 91 1
88 92 93 1
89 93 94 1
90 93 96 1
91 94 95 2
92 96 97 1
93 97 98 1
94 97 99 1
95 100 101 1
96 101 102 1
97 101 104 1
98 102 103 2
99 104 105 1
100 105 106 1
101 106 107 1
102 107 108 1
103 108 109 2
104 108 110 1
105 111 112 1
106 112 113 1
107 112 115 1
108 113 114 2
109 115 116 1
110 116 117 2
111 116 118 1
112 117 119 1
113 118 120 2
114 119 121 2
115 120 121 1
116 122 123 1
117 123 124 1
118 123 126 1
119 124 125 2
120 126 127 1
121 127 128 1
122 128 129 1
123 130 131 1
124 131 132 1
125 131 134 1
126 132 133 2
127 134 135 1
128 134 136 1
129 135 137 1
130 138 139 1
131 139 140 1
132 139 142 1
133 140 141 2
134 142 143 1
135 143 144 1
136 143 145 1
137 146 147 1
138 147 148 1
139 148 149 2
140 148 150 1
141 150 151 1
142 151 152 1
143 151 154 1
144 152 153 2
145 154 155 1
146 155 156 1
147 156 157 1
148 158 159 1
149 159 160 1
150 159 162 1
151 160 161 2
152 160 168 1
153 162 163 1
154 163 164 2
155 163 165 1
156 164 167 1
157 165 166 2
158 166 167 1
159 168 169 1
160 169 170 1
161 169 172 1
162 170 171 2
163 172 173 1
164 173 174 1
165 173 175 1
166 176 177 1
167 177 178 1
168 177 180 1
169 178 179 2
170 178 184 1
171 180 181 1
172 181 182 1
173 181 183 2
174 184 185 1
175 185 186 1
176 185 188 1
177 186 187 2
178 186 191 1
179 188 189 1
180 188 190 1
181 191 192 1
182 192 193 1
183 192 195 1
184 193 194 2
185 193 198 1
186 195 196 1
187 195 197 1
188 198 199 1
189 198 204 1
190 199 200 1
191 199 202 1
192 200 201 2
193 202 203 1
194 203 204 1
@<TRIPOS>SUBSTRUCTURE
1	MET343	1	RESIDUE	1 A	MET
2	LEU346	9	RESIDUE	1 A	LEU
3	THR347	17	RESIDUE	1 A	THR
4	LEU349	24	RESIDUE	1 A	LEU
5	ALA350	32	RESIDUE	1 A	ALA
6	ASP351	37	RESIDUE	1 A	ASP
7	GLU353	45	RESIDUE	1 A	GLU
8	TRP383	54	RESIDUE	1 A	TRP
9	LEU384	68	RESIDUE	1 A	LEU
10	LEU387	76	RESIDUE	1 A	LEU
11	MET388	84	RESIDUE	1 A	MET
12	LEU391	92	RESIDUE	1 A	LEU
13	ARG394	100	RESIDUE	1 A	ARG
14	PHE404	111	RESIDUE	1 A	PHE
15	MET421	122	RESIDUE	1 A	MET
16	ILE424	130	RESIDUE	1 A	ILE
17	LEU428	138	RESIDUE	1 A	LEU
18	GLY521	146	RESIDUE	1 A	GLY
19	MET522	150	RESIDUE	1 A	MET
20	HIS524	158	RESIDUE	1 A	HIS
21	LEU525	168	RESIDUE	1 A	LEU
22	ASN532	176	RESIDUE	1 A	ASN
23	VAL533	184	RESIDUE	1 A	VAL
24	VAL534	191	RESIDUE	1 A	VAL
25	PRO535	198	RESIDUE	1 A	PRO
