# created with PyMOL 2.5.0
@<TRIPOS>MOLECULE
5t92
187 178 22              
SMALL
USER_CHARGES
@<TRIPOS>ATOM
1	   N	-46.321	1.958	-28.062	N.3	1	MET343	0.000	
2	  CA	-45.465	2.600	-29.053	C.3	1	MET343	0.000	
3	   C	-46.177	3.693	-29.811	C.2	1	MET343	0.000	
4	   O	-45.532	4.672	-30.175	O.2	1	MET343	0.000	
5	  CB	-44.883	1.573	-30.033	C.3	1	MET343	0.000	
6	  CG	-43.609	0.922	-29.530	C.3	1	MET343	0.000	
7	  SD	-42.291	2.097	-29.102	S.3	1	MET343	0.000	
8	  CE	-41.780	2.625	-30.716	C.3	1	MET343	0.000	
9	   N	-46.495	6.727	-27.238	N.3	2	LEU346	0.000	
10	  CA	-45.152	7.284	-26.980	C.3	2	LEU346	0.000	
11	   C	-44.603	8.056	-28.165	C.2	2	LEU346	0.000	
12	   O	-44.114	9.179	-27.991	O.2	2	LEU346	0.000	
13	  CB	-44.174	6.176	-26.539	C.3	2	LEU346	0.000	
14	  CG	-44.498	5.517	-25.194	C.3	2	LEU346	0.000	
15	 CD1	-43.633	4.275	-24.949	C.3	2	LEU346	0.000	
16	 CD2	-44.409	6.514	-24.049	C.3	2	LEU346	0.000	
17	   N	-44.735	7.476	-29.384	N.am	3	THR347	0.000	
18	  CA	-44.307	8.096	-30.642	C.3	3	THR347	0.000	
19	   C	-45.130	9.369	-30.861	C.2	3	THR347	0.000	
20	   O	-44.562	10.396	-31.255	O.2	3	THR347	0.000	
21	  CB	-44.477	7.088	-31.781	C.3	3	THR347	0.000	
22	 CG2	-44.103	7.653	-33.162	C.3	3	THR347	0.000	
23	 OG1	-43.689	5.935	-31.470	O.3	3	THR347	0.000	
24	   N	-46.716	11.316	-28.551	N.3	4	LEU349	0.000	
25	  CA	-46.270	12.319	-27.579	C.3	4	LEU349	0.000	
26	   C	-44.916	12.883	-28.015	C.2	4	LEU349	0.000	
27	   O	-44.773	14.106	-28.130	O.2	4	LEU349	0.000	
28	  CB	-46.171	11.667	-26.178	C.3	4	LEU349	0.000	
29	  CG	-45.735	12.530	-24.999	C.3	4	LEU349	0.000	
30	 CD1	-46.804	13.573	-24.624	C.3	4	LEU349	0.000	
31	 CD2	-45.390	11.664	-23.821	C.3	4	LEU349	0.000	
32	   N	-43.949	12.008	-28.315	N.am	5	ALA350	0.000	
33	  CA	-42.606	12.443	-28.746	C.3	5	ALA350	0.000	
34	   C	-42.618	13.357	-29.982	C.2	5	ALA350	0.000	
35	   O	-41.845	14.329	-30.017	O.2	5	ALA350	0.000	
36	  CB	-41.699	11.241	-28.982	C.3	5	ALA350	0.000	
37	   N	-43.526	13.086	-30.969	N.am	6	ASP351	0.000	
38	  CA	-43.633	13.922	-32.179	C.3	6	ASP351	0.000	
39	   C	-44.205	15.327	-31.890	C.2	6	ASP351	0.000	
40	   O	-43.826	16.310	-32.538	O.2	6	ASP351	0.000	
41	  CB	-44.450	13.227	-33.281	C.3	6	ASP351	0.000	
42	  CG	-43.797	12.013	-33.937	C.2	6	ASP351	0.000	
43	 OD1	-42.542	11.945	-33.959	O.co2	6	ASP351	0.000	
44	 OD2	-44.541	11.145	-34.449	O.co2	6	ASP351	0.000	
45	   N	-43.929	16.817	-28.835	N.3	7	GLU353	0.000	
46	  CA	-42.826	17.406	-28.041	C.3	7	GLU353	0.000	
47	   C	-41.682	17.959	-28.899	C.2	7	GLU353	0.000	
48	   O	-40.994	18.907	-28.500	O.2	7	GLU353	0.000	
49	  CB	-42.258	16.364	-27.083	C.3	7	GLU353	0.000	
50	  CG	-43.047	16.221	-25.802	C.3	7	GLU353	0.000	
51	  CD	-42.421	15.209	-24.868	C.2	7	GLU353	0.000	
52	 OE1	-42.544	13.994	-25.148	O.co2	7	GLU353	0.000	
53	 OE2	-41.759	15.629	-23.890	O.co2	7	GLU353	0.000	
54	   N	-31.915	15.389	-30.382	N.3	8	TRP383	0.000	
55	  CA	-33.358	15.173	-30.086	C.3	8	TRP383	0.000	
56	   C	-33.746	14.127	-29.048	C.2	8	TRP383	0.000	
57	   O	-34.501	14.451	-28.132	O.2	8	TRP383	0.000	
58	  CB	-34.273	15.129	-31.314	C.3	8	TRP383	0.000	
59	  CG	-34.208	13.838	-32.068	C.2	8	TRP383	0.000	
60	 CD1	-33.320	13.512	-33.048	C.2	8	TRP383	0.000	
61	 CD2	-35.048	12.686	-31.883	C.2	8	TRP383	0.000	
62	 CE2	-34.613	11.704	-32.795	C.2	8	TRP383	0.000	
63	 CE3	-36.124	12.385	-31.027	C.2	8	TRP383	0.000	
64	 NE1	-33.577	12.250	-33.515	N.pl3	8	TRP383	0.000	
65	 CZ2	-35.206	10.436	-32.874	C.2	8	TRP383	0.000	
66	 CZ3	-36.741	11.143	-31.131	C.2	8	TRP383	0.000	
67	 CH2	-36.270	10.176	-32.030	C.2	8	TRP383	0.000	
68	   N	-33.202	12.893	-29.158	N.am	9	LEU384	0.000	
69	  CA	-33.562	11.826	-28.244	C.3	9	LEU384	0.000	
70	   C	-32.964	12.006	-26.871	C.2	9	LEU384	0.000	
71	   O	-33.611	11.653	-25.887	O.2	9	LEU384	0.000	
72	  CB	-33.295	10.440	-28.841	C.3	9	LEU384	0.000	
73	  CG	-33.977	9.259	-28.139	C.3	9	LEU384	0.000	
74	 CD1	-35.521	9.452	-28.056	C.3	9	LEU384	0.000	
75	 CD2	-33.574	7.952	-28.769	C.3	9	LEU384	0.000	
76	   N	-35.343	14.538	-25.314	N.3	10	LEU387	0.000	
77	  CA	-36.579	13.881	-24.858	C.3	10	LEU387	0.000	
78	   C	-36.332	13.089	-23.573	C.2	10	LEU387	0.000	
79	   O	-37.180	13.104	-22.671	O.2	10	LEU387	0.000	
80	  CB	-37.150	12.956	-25.914	C.3	10	LEU387	0.000	
81	  CG	-37.783	13.582	-27.143	C.3	10	LEU387	0.000	
82	 CD1	-38.220	12.513	-28.081	C.3	10	LEU387	0.000	
83	 CD2	-38.999	14.434	-26.772	C.3	10	LEU387	0.000	
84	   N	-35.140	12.441	-23.483	N.am	11	MET388	0.000	
85	  CA	-34.730	11.617	-22.355	C.3	11	MET388	0.000	
86	   C	-34.416	12.394	-21.091	C.2	11	MET388	0.000	
87	   O	-34.871	11.985	-20.034	O.2	11	MET388	0.000	
88	  CB	-33.576	10.686	-22.734	C.3	11	MET388	0.000	
89	  CG	-34.016	9.514	-23.553	C.3	11	MET388	0.000	
90	  SD	-32.607	8.558	-24.117	S.3	11	MET388	0.000	
91	  CE	-33.455	7.095	-24.705	C.3	11	MET388	0.000	
92	   N	-37.692	13.681	-19.735	N.3	12	LEU391	0.000	
93	  CA	-38.427	12.563	-19.118	C.3	12	LEU391	0.000	
94	   C	-37.879	12.287	-17.721	C.2	12	LEU391	0.000	
95	   O	-38.637	12.291	-16.767	O.2	12	LEU391	0.000	
96	  CB	-38.364	11.288	-19.985	C.3	12	LEU391	0.000	
97	  CG	-38.905	10.000	-19.342	C.3	12	LEU391	0.000	
98	 CD1	-40.408	10.095	-19.038	C.3	12	LEU391	0.000	
99	 CD2	-38.626	8.796	-20.199	C.3	12	LEU391	0.000	
100	   N	-38.805	14.922	-15.230	N.3	13	ARG394	0.000	
101	  CA	-40.224	14.869	-14.869	C.3	13	ARG394	0.000	
102	   C	-40.484	13.736	-13.895	C.2	13	ARG394	0.000	
103	   O	-41.340	13.884	-13.027	O.2	13	ARG394	0.000	
104	  CB	-41.133	14.700	-16.103	C.3	13	ARG394	0.000	
105	  CG	-41.261	15.959	-16.936	C.3	13	ARG394	0.000	
106	  CD	-42.386	15.918	-17.955	C.3	13	ARG394	0.000	
107	  NE	-42.310	14.788	-18.886	N.pl3	13	ARG394	0.000	
108	  CZ	-41.580	14.769	-19.996	C.cat	13	ARG394	0.000	
109	 NH1	-40.821	15.806	-20.317	N.pl3	13	ARG394	0.000	
110	 NH2	-41.602	13.710	-20.791	N.pl3	13	ARG394	0.000	
111	   N	-43.982	10.139	-18.425	N.3	14	PHE404	0.000	
112	  CA	-43.996	10.470	-19.858	C.3	14	PHE404	0.000	
113	   C	-44.962	11.647	-20.059	C.2	14	PHE404	0.000	
114	   O	-44.638	12.614	-20.748	O.2	14	PHE404	0.000	
115	  CB	-44.427	9.261	-20.701	C.3	14	PHE404	0.000	
116	  CG	-43.431	8.130	-20.763	C.2	14	PHE404	0.000	
117	 CD1	-42.327	8.196	-21.611	C.2	14	PHE404	0.000	
118	 CD2	-43.612	6.979	-20.002	C.2	14	PHE404	0.000	
119	 CE1	-41.422	7.131	-21.696	C.2	14	PHE404	0.000	
120	 CE2	-42.700	5.915	-20.085	C.2	14	PHE404	0.000	
121	  CZ	-41.609	6.005	-20.927	C.2	14	PHE404	0.000	
122	   N	-38.072	-2.989	-24.546	N.3	15	MET421	0.000	
123	  CA	-37.685	-1.590	-24.348	C.3	15	MET421	0.000	
124	   C	-37.419	-1.335	-22.854	C.2	15	MET421	0.000	
125	   O	-37.031	-0.226	-22.478	O.2	15	MET421	0.000	
126	  CB	-38.815	-0.671	-24.854	C.3	15	MET421	0.000	
127	  CG	-38.334	0.419	-25.776	C.3	15	MET421	0.000	
128	  SD	-39.628	1.158	-26.822	S.3	15	MET421	0.000	
129	  CE	-40.428	2.225	-25.668	C.3	15	MET421	0.000	
130	   N	-33.879	0.000	-21.767	N.3	16	ILE424	0.000	
131	  CA	-33.766	1.465	-21.864	C.3	16	ILE424	0.000	
132	   C	-34.562	2.125	-20.736	C.2	16	ILE424	0.000	
133	   O	-34.066	3.070	-20.126	O.2	16	ILE424	0.000	
134	  CB	-34.106	2.023	-23.277	C.3	16	ILE424	0.000	
135	 CG1	-33.260	1.314	-24.352	C.3	16	ILE424	0.000	
136	 CG2	-33.869	3.535	-23.343	C.3	16	ILE424	0.000	
137	 CD1	-33.861	1.284	-25.743	C.3	16	ILE424	0.000	
138	   N	-35.750	1.579	-20.413	N.am	17	PHE425	0.000	
139	  CA	-36.609	2.058	-19.324	C.3	17	PHE425	0.000	
140	   C	-35.933	1.967	-17.959	C.2	17	PHE425	0.000	
141	   O	-35.984	2.939	-17.208	O.2	17	PHE425	0.000	
142	  CB	-37.960	1.323	-19.319	C.3	17	PHE425	0.000	
143	  CG	-39.020	1.864	-20.261	C.2	17	PHE425	0.000	
144	 CD1	-38.666	2.488	-21.457	C.2	17	PHE425	0.000	
145	 CD2	-40.372	1.734	-19.961	C.2	17	PHE425	0.000	
146	 CE1	-39.640	2.980	-22.325	C.2	17	PHE425	0.000	
147	 CE2	-41.350	2.222	-20.837	C.2	17	PHE425	0.000	
148	  CZ	-40.975	2.826	-22.020	C.2	17	PHE425	0.000	
149	   N	-33.240	4.584	-17.700	N.3	18	LEU428	0.000	
150	  CA	-33.830	5.912	-17.493	C.3	18	LEU428	0.000	
151	   C	-34.219	6.129	-16.050	C.2	18	LEU428	0.000	
152	   O	-34.055	7.241	-15.526	O.2	18	LEU428	0.000	
153	  CB	-35.033	6.122	-18.423	C.3	18	LEU428	0.000	
154	  CG	-34.666	6.363	-19.876	C.3	18	LEU428	0.000	
155	 CD1	-35.766	5.915	-20.776	C.3	18	LEU428	0.000	
156	 CD2	-34.320	7.814	-20.123	C.3	18	LEU428	0.000	
157	   N	-28.808	3.408	-27.781	N.3	19	LYS520	0.000	
158	  CA	-29.543	2.145	-27.661	C.3	19	LYS520	0.000	
159	   C	-31.005	2.315	-28.121	C.2	19	LYS520	0.000	
160	   O	-31.607	1.368	-28.646	O.2	19	LYS520	0.000	
161	  CB	-29.504	1.640	-26.204	C.3	19	LYS520	0.000	
162	  CG	-28.127	1.134	-25.731	C.3	19	LYS520	0.000	
163	  CD	-27.764	-0.219	-26.348	C.3	19	LYS520	0.000	
164	  CE	-26.340	-0.627	-26.079	C.3	19	LYS520	0.000	
165	  NZ	-25.939	-1.776	-26.931	N.4	19	LYS520	0.000	
166	   N	-31.549	3.514	-27.889	N.am	20	GLY521	0.000	
167	  CA	-32.901	3.895	-28.269	C.3	20	GLY521	0.000	
168	   C	-33.007	4.116	-29.757	C.2	20	GLY521	0.000	
169	   O	-33.968	3.644	-30.359	O.2	20	GLY521	0.000	
170	   N	-32.933	0.714	-31.315	N.3	21	HIS524	0.000	
171	  CA	-34.233	0.044	-31.211	C.3	21	HIS524	0.000	
172	   C	-35.251	0.610	-32.205	C.2	21	HIS524	0.000	
173	   O	-36.010	-0.162	-32.788	O.2	21	HIS524	0.000	
174	  CB	-34.779	0.073	-29.778	C.3	21	HIS524	0.000	
175	  CG	-36.130	-0.554	-29.669	C.2	21	HIS524	0.000	
176	 CD2	-36.470	-1.859	-29.583	C.2	21	HIS524	0.000	
177	 ND1	-37.287	0.209	-29.755	N.2	21	HIS524	0.000	
178	 CE1	-38.289	-0.653	-29.686	C.2	21	HIS524	0.000	
179	 NE2	-37.847	-1.910	-29.579	N.pl3	21	HIS524	0.000	
180	   N	-35.265	1.948	-32.387	N.am	22	LEU525	0.000	
181	  CA	-36.128	2.646	-33.337	C.3	22	LEU525	0.000	
182	   C	-35.655	2.354	-34.754	C.2	22	LEU525	0.000	
183	   O	-36.467	2.345	-35.671	O.2	22	LEU525	0.000	
184	  CB	-36.105	4.174	-33.099	C.3	22	LEU525	0.000	
185	  CG	-36.804	4.723	-31.845	C.3	22	LEU525	0.000	
186	 CD1	-36.561	6.206	-31.708	C.3	22	LEU525	0.000	
187	 CD2	-38.300	4.433	-31.850	C.3	22	LEU525	0.000	
@<TRIPOS>BOND
1 1 2 1
2 2 3 1
3 2 5 1
4 3 4 2
5 5 6 1
6 6 7 1
7 7 8 1
8 9 10 1
9 10 11 1
10 10 13 1
11 11 12 2
12 11 17 1
13 13 14 1
14 14 15 1
15 14 16 1
16 17 18 1
17 18 19 1
18 18 21 1
19 19 20 2
20 21 22 1
21 21 23 1
22 24 25 1
23 25 26 1
24 25 28 1
25 26 27 2
26 26 32 1
27 28 29 1
28 29 30 1
29 29 31 1
30 32 33 1
31 33 34 1
32 33 36 1
33 34 35 2
34 34 37 1
35 37 38 1
36 38 39 1
37 38 41 1
38 39 40 2
39 41 42 1
40 42 43 2
41 42 44 1
42 45 46 1
43 46 47 1
44 46 49 1
45 47 48 2
46 49 50 1
47 50 51 1
48 51 52 2
49 51 53 1
50 54 55 1
51 55 56 1
52 55 58 1
53 56 57 2
54 56 68 1
55 58 59 1
56 59 60 2
57 59 61 1
58 60 64 1
59 61 62 2
60 61 63 1
61 62 65 1
62 63 66 2
63 62 64 1
64 65 67 2
65 66 67 1
66 68 69 1
67 69 70 1
68 69 72 1
69 70 71 2
70 72 73 1
71 73 74 1
72 73 75 1
73 76 77 1
74 77 78 1
75 77 80 1
76 78 79 2
77 78 84 1
78 80 81 1
79 81 82 1
80 81 83 1
81 84 85 1
82 85 86 1
83 85 88 1
84 86 87 2
85 88 89 1
86 89 90 1
87 90 91 1
88 92 93 1
89 93 94 1
90 93 96 1
91 94 95 2
92 96 97 1
93 97 98 1
94 97 99 1
95 100 101 1
96 101 102 1
97 101 104 1
98 102 103 2
99 104 105 1
100 105 106 1
101 106 107 1
102 107 108 1
103 108 109 2
104 108 110 1
105 111 112 1
106 112 113 1
107 112 115 1
108 113 114 2
109 115 116 1
110 116 117 2
111 116 118 1
112 117 119 1
113 118 120 2
114 119 121 2
115 120 121 1
116 122 123 1
117 123 124 1
118 123 126 1
119 124 125 2
120 126 127 1
121 127 128 1
122 128 129 1
123 130 131 1
124 131 132 1
125 131 134 1
126 132 133 2
127 132 138 1
128 134 135 1
129 134 136 1
130 135 137 1
131 138 139 1
132 139 140 1
133 139 142 1
134 140 141 2
135 142 143 1
136 143 144 2
137 143 145 1
138 144 146 1
139 145 147 2
140 146 148 2
141 147 148 1
142 149 150 1
143 150 151 1
144 150 153 1
145 151 152 2
146 153 154 1
147 154 155 1
148 154 156 1
149 157 158 1
150 158 159 1
151 158 161 1
152 159 160 2
153 159 166 1
154 161 162 1
155 162 163 1
156 163 164 1
157 164 165 1
158 166 167 1
159 167 168 1
160 168 169 2
161 170 171 1
162 171 172 1
163 171 174 1
164 172 173 2
165 172 180 1
166 174 175 1
167 175 176 2
168 175 177 1
169 176 179 1
170 177 178 2
171 178 179 1
172 180 181 1
173 181 182 1
174 181 184 1
175 182 183 2
176 184 185 1
177 185 186 1
178 185 187 1
@<TRIPOS>SUBSTRUCTURE
1	MET343	1	RESIDUE	1 A	MET
2	LEU346	9	RESIDUE	1 A	LEU
3	THR347	17	RESIDUE	1 A	THR
4	LEU349	24	RESIDUE	1 A	LEU
5	ALA350	32	RESIDUE	1 A	ALA
6	ASP351	37	RESIDUE	1 A	ASP
7	GLU353	45	RESIDUE	1 A	GLU
8	TRP383	54	RESIDUE	1 A	TRP
9	LEU384	68	RESIDUE	1 A	LEU
10	LEU387	76	RESIDUE	1 A	LEU
11	MET388	84	RESIDUE	1 A	MET
12	LEU391	92	RESIDUE	1 A	LEU
13	ARG394	100	RESIDUE	1 A	ARG
14	PHE404	111	RESIDUE	1 A	PHE
15	MET421	122	RESIDUE	1 A	MET
16	ILE424	130	RESIDUE	1 A	ILE
17	PHE425	138	RESIDUE	1 A	PHE
18	LEU428	149	RESIDUE	1 A	LEU
19	LYS520	157	RESIDUE	1 A	LYS
20	GLY521	166	RESIDUE	1 A	GLY
21	HIS524	170	RESIDUE	1 A	HIS
22	LEU525	180	RESIDUE	1 A	LEU
