# created with PyMOL 2.5.0
@<TRIPOS>MOLECULE
6c42
211 201 26              
SMALL
USER_CHARGES
@<TRIPOS>ATOM
1	   N	-9.169	-35.454	30.245	N.3	1	MET343	0.000	
2	  CA	-8.506	-35.490	28.943	C.3	1	MET343	0.000	
3	   C	-9.368	-34.854	27.857	C.2	1	MET343	0.000	
4	   O	-8.851	-34.245	26.920	O.2	1	MET343	0.000	
5	  CB	-8.156	-36.929	28.556	C.3	1	MET343	0.000	
6	  CG	-6.745	-37.350	28.942	C.3	1	MET343	0.000	
7	  SD	-5.497	-36.142	28.453	S.3	1	MET343	0.000	
8	  CE	-5.510	-36.336	26.674	C.3	1	MET343	0.000	
9	   N	-9.032	-31.016	28.193	N.3	2	LEU346	0.000	
10	  CA	-7.712	-30.586	27.743	C.3	2	LEU346	0.000	
11	   C	-7.599	-30.641	26.223	C.2	2	LEU346	0.000	
12	   O	-7.020	-29.748	25.604	O.2	2	LEU346	0.000	
13	  CB	-6.618	-31.442	28.386	C.3	2	LEU346	0.000	
14	  CG	-6.541	-31.392	29.914	C.3	2	LEU346	0.000	
15	 CD1	-5.442	-32.305	30.429	C.3	2	LEU346	0.000	
16	 CD2	-6.321	-29.963	30.390	C.3	2	LEU346	0.000	
17	   N	-8.149	-31.694	25.627	N.am	3	THR347	0.000	
18	  CA	-8.152	-31.838	24.175	C.3	3	THR347	0.000	
19	   C	-8.961	-30.719	23.528	C.2	3	THR347	0.000	
20	   O	-8.539	-30.125	22.536	O.2	3	THR347	0.000	
21	  CB	-8.724	-33.197	23.737	C.3	3	THR347	0.000	
22	 CG2	-8.758	-33.297	22.219	C.3	3	THR347	0.000	
23	 OG1	-7.909	-34.252	24.262	O.3	3	THR347	0.000	
24	   N	-9.593	-27.794	24.811	N.3	4	LEU349	0.000	
25	  CA	-8.842	-26.568	25.037	C.3	4	LEU349	0.000	
26	   C	-7.670	-26.454	24.061	C.2	4	LEU349	0.000	
27	   O	-7.466	-25.410	23.440	O.2	4	LEU349	0.000	
28	  CB	-8.349	-26.523	26.483	C.3	4	LEU349	0.000	
29	  CG	-8.072	-25.155	27.104	C.3	4	LEU349	0.000	
30	 CD1	-9.283	-24.250	26.952	C.3	4	LEU349	0.000	
31	 CD2	-7.712	-25.321	28.571	C.3	4	LEU349	0.000	
32	   N	-6.902	-27.534	23.940	N.am	5	ALA350	0.000	
33	  CA	-5.756	-27.579	23.035	C.3	5	ALA350	0.000	
34	   C	-6.146	-27.296	21.584	C.2	5	ALA350	0.000	
35	   O	-5.460	-26.551	20.884	O.2	5	ALA350	0.000	
36	  CB	-5.061	-28.931	23.136	C.3	5	ALA350	0.000	
37	   N	-7.245	-27.897	21.138	N.am	6	ASP351	0.000	
38	  CA	-7.715	-27.716	19.767	C.3	6	ASP351	0.000	
39	   C	-8.117	-26.271	19.489	C.2	6	ASP351	0.000	
40	   O	-7.879	-25.751	18.400	O.2	6	ASP351	0.000	
41	  CB	-8.894	-28.646	19.476	C.3	6	ASP351	0.000	
42	  CG	-8.482	-30.103	19.393	C.2	6	ASP351	0.000	
43	 OD1	-7.265	-30.380	19.408	O.co2	6	ASP351	0.000	
44	 OD2	-9.377	-30.969	19.309	O.co2	6	ASP351	0.000	
45	   N	-6.963	-23.596	21.101	N.3	7	GLU353	0.000	
46	  CA	-5.783	-22.742	21.156	C.3	7	GLU353	0.000	
47	   C	-4.917	-22.904	19.911	C.2	7	GLU353	0.000	
48	   O	-4.080	-22.051	19.615	O.2	7	GLU353	0.000	
49	  CB	-4.950	-23.045	22.403	C.3	7	GLU353	0.000	
50	  CG	-5.296	-22.191	23.608	C.3	7	GLU353	0.000	
51	  CD	-4.176	-22.158	24.630	C.2	7	GLU353	0.000	
52	 OE1	-3.462	-23.174	24.768	O.co2	7	GLU353	0.000	
53	 OE2	-4.002	-21.111	25.289	O.co2	7	GLU353	0.000	
54	   N	-5.132	-23.993	19.179	N.am	8	LEU354	0.000	
55	  CA	-4.411	-24.223	17.933	C.3	8	LEU354	0.000	
56	   C	-4.805	-23.188	16.887	C.2	8	LEU354	0.000	
57	   O	-3.952	-22.665	16.170	O.2	8	LEU354	0.000	
58	  CB	-4.673	-25.634	17.406	C.3	8	LEU354	0.000	
59	  CG	-3.860	-26.029	16.171	C.3	8	LEU354	0.000	
60	 CD1	-2.368	-25.925	16.448	C.3	8	LEU354	0.000	
61	 CD2	-4.229	-27.429	15.701	C.3	8	LEU354	0.000	
62	   N	4.187	-27.013	17.153	N.3	9	TRP383	0.000	
63	  CA	2.851	-26.757	17.703	C.3	9	TRP383	0.000	
64	   C	2.690	-27.180	19.166	C.2	9	TRP383	0.000	
65	   O	2.056	-26.473	19.949	O.2	9	TRP383	0.000	
66	  CB	1.776	-27.443	16.850	C.3	9	TRP383	0.000	
67	  CG	1.711	-28.935	16.994	C.2	9	TRP383	0.000	
68	 CD1	2.358	-29.861	16.230	C.2	9	TRP383	0.000	
69	 CD2	0.943	-29.672	17.954	C.2	9	TRP383	0.000	
70	 CE2	1.179	-31.040	17.717	C.2	9	TRP383	0.000	
71	 CE3	0.083	-29.307	18.995	C.2	9	TRP383	0.000	
72	 NE1	2.046	-31.129	16.658	N.pl3	9	TRP383	0.000	
73	 CZ2	0.587	-32.045	18.479	C.2	9	TRP383	0.000	
74	 CZ3	-0.505	-30.306	19.751	C.2	9	TRP383	0.000	
75	 CH2	-0.251	-31.658	19.489	C.2	9	TRP383	0.000	
76	   N	3.263	-28.320	19.541	N.am	10	LEU384	0.000	
77	  CA	3.125	-28.805	20.911	C.3	10	LEU384	0.000	
78	   C	4.039	-28.037	21.862	C.2	10	LEU384	0.000	
79	   O	3.659	-27.745	22.997	O.2	10	LEU384	0.000	
80	  CB	3.413	-30.305	20.992	C.3	10	LEU384	0.000	
81	  CG	3.280	-30.908	22.393	C.3	10	LEU384	0.000	
82	 CD1	1.938	-30.538	23.008	C.3	10	LEU384	0.000	
83	 CD2	3.449	-32.418	22.351	C.3	10	LEU384	0.000	
84	   N	2.305	-24.771	22.598	N.3	11	LEU387	0.000	
85	  CA	1.225	-24.983	23.556	C.3	11	LEU387	0.000	
86	   C	1.775	-25.091	24.974	C.2	11	LEU387	0.000	
87	   O	1.236	-24.499	25.908	O.2	11	LEU387	0.000	
88	  CB	0.428	-26.244	23.213	C.3	11	LEU387	0.000	
89	  CG	-0.554	-26.180	22.043	C.3	11	LEU387	0.000	
90	 CD1	-1.343	-27.477	21.950	C.3	11	LEU387	0.000	
91	 CD2	-1.492	-24.994	22.193	C.3	11	LEU387	0.000	
92	   N	2.856	-25.849	25.123	N.am	12	MET388	0.000	
93	  CA	3.429	-26.120	26.436	C.3	12	MET388	0.000	
94	   C	4.024	-24.873	27.085	C.2	12	MET388	0.000	
95	   O	3.791	-24.614	28.266	O.2	12	MET388	0.000	
96	  CB	4.493	-27.215	26.332	C.3	12	MET388	0.000	
97	  CG	3.917	-28.610	26.126	C.3	12	MET388	0.000	
98	  SD	5.179	-29.887	25.973	S.3	12	MET388	0.000	
99	  CE	4.174	-31.368	26.060	C.3	12	MET388	0.000	
100	   N	1.351	-22.665	28.235	N.3	13	LEU391	0.000	
101	  CA	0.767	-23.199	29.460	C.3	13	LEU391	0.000	
102	   C	1.647	-22.892	30.666	C.2	13	LEU391	0.000	
103	   O	1.153	-22.501	31.725	O.2	13	LEU391	0.000	
104	  CB	0.554	-24.709	29.339	C.3	13	LEU391	0.000	
105	  CG	0.123	-25.416	30.626	C.3	13	LEU391	0.000	
106	 CD1	-1.261	-24.949	31.057	C.3	13	LEU391	0.000	
107	 CD2	0.160	-26.926	30.458	C.3	13	LEU391	0.000	
108	   N	1.373	-18.976	31.764	N.3	14	ARG394	0.000	
109	  CA	0.201	-18.566	32.531	C.3	14	ARG394	0.000	
110	   C	0.072	-19.339	33.844	C.2	14	ARG394	0.000	
111	   O	-0.763	-19.010	34.688	O.2	14	ARG394	0.000	
112	  CB	-1.075	-18.721	31.695	C.3	14	ARG394	0.000	
113	  CG	-1.379	-20.131	31.209	C.3	14	ARG394	0.000	
114	  CD	-2.693	-20.141	30.436	C.3	14	ARG394	0.000	
115	  NE	-3.033	-21.451	29.887	N.pl3	14	ARG394	0.000	
116	  CZ	-2.907	-21.780	28.606	C.cat	14	ARG394	0.000	
117	 NH1	-2.444	-20.894	27.734	N.pl3	14	ARG394	0.000	
118	 NH2	-3.246	-22.994	28.193	N.pl3	14	ARG394	0.000	
119	   N	-4.346	-24.604	32.921	N.3	15	PHE404	0.000	
120	  CA	-4.792	-24.897	31.565	C.3	15	PHE404	0.000	
121	   C	-5.809	-23.847	31.136	C.2	15	PHE404	0.000	
122	   O	-5.842	-23.423	29.982	O.2	15	PHE404	0.000	
123	  CB	-5.398	-26.299	31.474	C.3	15	PHE404	0.000	
124	  CG	-4.387	-27.407	31.578	C.2	15	PHE404	0.000	
125	 CD1	-3.707	-27.848	30.455	C.2	15	PHE404	0.000	
126	 CD2	-4.123	-28.014	32.795	C.2	15	PHE404	0.000	
127	 CE1	-2.779	-28.869	30.543	C.2	15	PHE404	0.000	
128	 CE2	-3.196	-29.036	32.890	C.2	15	PHE404	0.000	
129	  CZ	-2.524	-29.464	31.762	C.2	15	PHE404	0.000	
130	   N	0.539	-39.362	32.897	N.3	16	MET421	0.000	
131	  CA	0.372	-37.913	32.838	C.3	16	MET421	0.000	
132	   C	1.213	-37.156	33.866	C.2	16	MET421	0.000	
133	   O	1.694	-36.057	33.586	O.2	16	MET421	0.000	
134	  CB	-1.102	-37.553	33.033	C.3	16	MET421	0.000	
135	  CG	-1.382	-36.058	33.054	C.3	16	MET421	0.000	
136	  SD	-1.674	-35.364	31.418	S.3	16	MET421	0.000	
137	  CE	-3.272	-36.076	31.033	C.3	16	MET421	0.000	
138	   N	4.733	-35.973	32.811	N.3	17	ILE424	0.000	
139	  CA	4.726	-34.796	31.957	C.3	17	ILE424	0.000	
140	   C	4.242	-33.572	32.730	C.2	17	ILE424	0.000	
141	   O	4.708	-32.457	32.499	O.2	17	ILE424	0.000	
142	  CB	3.850	-35.030	30.718	C.3	17	ILE424	0.000	
143	 CG1	4.537	-36.036	29.792	C.3	17	ILE424	0.000	
144	 CG2	3.582	-33.721	29.992	C.3	17	ILE424	0.000	
145	 CD1	3.608	-37.063	29.199	C.3	17	ILE424	0.000	
146	   N	6.363	-30.001	33.246	N.3	18	LEU428	0.000	
147	  CA	5.737	-28.701	33.042	C.3	18	LEU428	0.000	
148	   C	5.803	-27.860	34.316	C.2	18	LEU428	0.000	
149	   O	6.097	-26.665	34.268	O.2	18	LEU428	0.000	
150	  CB	4.286	-28.870	32.589	C.3	18	LEU428	0.000	
151	  CG	4.104	-29.509	31.210	C.3	18	LEU428	0.000	
152	 CD1	2.665	-29.959	31.004	C.3	18	LEU428	0.000	
153	 CD2	4.532	-28.542	30.115	C.3	18	LEU428	0.000	
154	   N	8.426	-36.095	24.729	N.3	19	LYS520	0.000	
155	  CA	7.839	-37.011	25.700	C.3	19	LYS520	0.000	
156	   C	6.320	-36.875	25.722	C.2	19	LYS520	0.000	
157	   O	5.602	-37.859	25.902	O.2	19	LYS520	0.000	
158	  CB	8.413	-36.757	27.095	C.3	19	LYS520	0.000	
159	  CG	9.913	-36.980	27.197	C.3	19	LYS520	0.000	
160	  CD	10.287	-38.396	26.790	C.3	19	LYS520	0.000	
161	   N	5.836	-35.651	25.540	N.am	20	GLY521	0.000	
162	  CA	4.408	-35.403	25.467	C.3	20	GLY521	0.000	
163	   C	3.793	-36.077	24.257	C.2	20	GLY521	0.000	
164	   O	2.715	-36.668	24.341	O.2	20	GLY521	0.000	
165	   N	3.436	-39.733	24.832	N.3	21	HIS524	0.000	
166	  CA	2.319	-39.976	25.737	C.3	21	HIS524	0.000	
167	   C	0.970	-39.856	25.029	C.2	21	HIS524	0.000	
168	   O	0.068	-40.663	25.254	O.2	21	HIS524	0.000	
169	  CB	2.386	-39.004	26.918	C.3	21	HIS524	0.000	
170	  CG	1.305	-39.206	27.933	C.2	21	HIS524	0.000	
171	 CD2	0.923	-40.306	28.624	C.2	21	HIS524	0.000	
172	 ND1	0.471	-38.188	28.344	N.2	21	HIS524	0.000	
173	 CE1	-0.378	-38.653	29.243	C.2	21	HIS524	0.000	
174	 NE2	-0.125	-39.936	29.430	N.pl3	21	HIS524	0.000	
175	   N	0.838	-38.847	24.173	N.am	22	LEU525	0.000	
176	  CA	-0.408	-38.617	23.448	C.3	22	LEU525	0.000	
177	   C	-0.716	-39.750	22.470	C.2	22	LEU525	0.000	
178	   O	-1.868	-40.159	22.325	O.2	22	LEU525	0.000	
179	  CB	-0.354	-37.282	22.701	C.3	22	LEU525	0.000	
180	  CG	-0.356	-36.017	23.563	C.3	22	LEU525	0.000	
181	 CD1	-0.112	-34.783	22.709	C.3	22	LEU525	0.000	
182	 CD2	-1.662	-35.892	24.332	C.3	22	LEU525	0.000	
183	   N	-6.370	-39.197	16.390	N.3	23	ASN532	0.000	
184	  CA	-5.117	-38.570	15.981	C.3	23	ASN532	0.000	
185	   C	-4.518	-37.706	17.087	C.2	23	ASN532	0.000	
186	   O	-5.202	-37.339	18.043	O.2	23	ASN532	0.000	
187	  CB	-5.327	-37.728	14.722	C.3	23	ASN532	0.000	
188	  CG	-6.126	-36.468	14.990	C.2	23	ASN532	0.000	
189	 ND2	-5.433	-35.341	15.108	N.pl3	23	ASN532	0.000	
190	 OD1	-7.353	-36.506	15.089	O.2	23	ASN532	0.000	
191	   N	-3.236	-37.385	16.947	N.am	24	VAL533	0.000	
192	  CA	-2.536	-36.566	17.931	C.3	24	VAL533	0.000	
193	   C	-2.070	-35.251	17.319	C.2	24	VAL533	0.000	
194	   O	-2.301	-34.177	17.874	O.2	24	VAL533	0.000	
195	  CB	-1.317	-37.304	18.518	C.3	24	VAL533	0.000	
196	 CG1	-0.458	-36.348	19.333	C.3	24	VAL533	0.000	
197	 CG2	-1.765	-38.486	19.362	C.3	24	VAL533	0.000	
198	   N	-1.409	-35.346	16.171	N.am	25	VAL534	0.000	
199	  CA	-0.859	-34.178	15.497	C.3	25	VAL534	0.000	
200	   C	-1.862	-33.567	14.526	C.2	25	VAL534	0.000	
201	   O	-2.653	-34.282	13.911	O.2	25	VAL534	0.000	
202	  CB	0.429	-34.527	14.727	C.3	25	VAL534	0.000	
203	 CG1	1.462	-35.123	15.668	C.3	25	VAL534	0.000	
204	 CG2	0.121	-35.487	13.588	C.3	25	VAL534	0.000	
205	   N	-1.837	-32.233	14.391	N.am	26	PRO535	0.000	
206	  CA	-2.654	-31.574	13.368	C.3	26	PRO535	0.000	
207	   C	-2.131	-31.914	11.977	C.2	26	PRO535	0.000	
208	   O	-0.925	-31.830	11.743	O.2	26	PRO535	0.000	
209	  CB	-2.485	-30.086	13.681	C.3	26	PRO535	0.000	
210	  CG	-1.180	-29.996	14.399	C.3	26	PRO535	0.000	
211	  CD	-1.035	-31.275	15.171	C.3	26	PRO535	0.000	
@<TRIPOS>BOND
1 1 2 1
2 2 3 1
3 2 5 1
4 3 4 2
5 5 6 1
6 6 7 1
7 7 8 1
8 9 10 1
9 10 11 1
10 10 13 1
11 11 12 2
12 11 17 1
13 13 14 1
14 14 15 1
15 14 16 1
16 17 18 1
17 18 19 1
18 18 21 1
19 19 20 2
20 21 22 1
21 21 23 1
22 24 25 1
23 25 26 1
24 25 28 1
25 26 27 2
26 26 32 1
27 28 29 1
28 29 30 1
29 29 31 1
30 32 33 1
31 33 34 1
32 33 36 1
33 34 35 2
34 34 37 1
35 37 38 1
36 38 39 1
37 38 41 1
38 39 40 2
39 41 42 1
40 42 43 2
41 42 44 1
42 45 46 1
43 46 47 1
44 46 49 1
45 47 48 2
46 47 54 1
47 49 50 1
48 50 51 1
49 51 52 2
50 51 53 1
51 54 55 1
52 55 56 1
53 55 58 1
54 56 57 2
55 58 59 1
56 59 60 1
57 59 61 1
58 62 63 1
59 63 64 1
60 63 66 1
61 64 65 2
62 64 76 1
63 66 67 1
64 67 68 2
65 67 69 1
66 68 72 1
67 69 70 2
68 69 71 1
69 70 73 1
70 71 74 2
71 70 72 1
72 73 75 2
73 74 75 1
74 76 77 1
75 77 78 1
76 77 80 1
77 78 79 2
78 80 81 1
79 81 82 1
80 81 83 1
81 84 85 1
82 85 86 1
83 85 88 1
84 86 87 2
85 86 92 1
86 88 89 1
87 89 90 1
88 89 91 1
89 92 93 1
90 93 94 1
91 93 96 1
92 94 95 2
93 96 97 1
94 97 98 1
95 98 99 1
96 100 101 1
97 101 102 1
98 101 104 1
99 102 103 2
100 104 105 1
101 105 106 1
102 105 107 1
103 108 109 1
104 109 110 1
105 109 112 1
106 110 111 2
107 112 113 1
108 113 114 1
109 114 115 1
110 115 116 1
111 116 117 2
112 116 118 1
113 119 120 1
114 120 121 1
115 120 123 1
116 121 122 2
117 123 124 1
118 124 125 2
119 124 126 1
120 125 127 1
121 126 128 2
122 127 129 2
123 128 129 1
124 130 131 1
125 131 132 1
126 131 134 1
127 132 133 2
128 134 135 1
129 135 136 1
130 136 137 1
131 138 139 1
132 139 140 1
133 139 142 1
134 140 141 2
135 142 143 1
136 142 144 1
137 143 145 1
138 146 147 1
139 147 148 1
140 147 150 1
141 148 149 2
142 150 151 1
143 151 152 1
144 151 153 1
145 154 155 1
146 155 156 1
147 155 158 1
148 156 157 2
149 156 161 1
150 158 159 1
151 159 160 1
152 161 162 1
153 162 163 1
154 163 164 2
155 165 166 1
156 166 167 1
157 166 169 1
158 167 168 2
159 167 175 1
160 169 170 1
161 170 171 2
162 170 172 1
163 171 174 1
164 172 173 2
165 173 174 1
166 175 176 1
167 176 177 1
168 176 179 1
169 177 178 2
170 179 180 1
171 180 181 1
172 180 182 1
173 183 184 1
174 184 185 1
175 184 187 1
176 185 186 2
177 185 191 1
178 187 188 1
179 188 189 1
180 188 190 2
181 191 192 1
182 192 193 1
183 192 195 1
184 193 194 2
185 193 198 1
186 195 196 1
187 195 197 1
188 198 199 1
189 199 200 1
190 199 202 1
191 200 201 2
192 200 205 1
193 202 203 1
194 202 204 1
195 205 206 1
196 205 211 1
197 206 207 1
198 206 209 1
199 207 208 2
200 209 210 1
201 210 211 1
@<TRIPOS>SUBSTRUCTURE
1	MET343	1	RESIDUE	1 A	MET
2	LEU346	9	RESIDUE	1 A	LEU
3	THR347	17	RESIDUE	1 A	THR
4	LEU349	24	RESIDUE	1 A	LEU
5	ALA350	32	RESIDUE	1 A	ALA
6	ASP351	37	RESIDUE	1 A	ASP
7	GLU353	45	RESIDUE	1 A	GLU
8	LEU354	54	RESIDUE	1 A	LEU
9	TRP383	62	RESIDUE	1 A	TRP
10	LEU384	76	RESIDUE	1 A	LEU
11	LEU387	84	RESIDUE	1 A	LEU
12	MET388	92	RESIDUE	1 A	MET
13	LEU391	100	RESIDUE	1 A	LEU
14	ARG394	108	RESIDUE	1 A	ARG
15	PHE404	119	RESIDUE	1 A	PHE
16	MET421	130	RESIDUE	1 A	MET
17	ILE424	138	RESIDUE	1 A	ILE
18	LEU428	146	RESIDUE	1 A	LEU
19	LYS520	154	RESIDUE	1 A	LYS
20	GLY521	161	RESIDUE	1 A	GLY
21	HIS524	165	RESIDUE	1 A	HIS
22	LEU525	175	RESIDUE	1 A	LEU
23	ASN532	183	RESIDUE	1 A	ASN
24	VAL533	191	RESIDUE	1 A	VAL
25	VAL534	198	RESIDUE	1 A	VAL
26	PRO535	205	RESIDUE	1 A	PRO
