# created with PyMOL 2.5.0
@<TRIPOS>MOLECULE
1a52
153 140 19              
SMALL
USER_CHARGES
@<TRIPOS>ATOM
1	   N	112.228	7.616	98.726	N.3	1	MET343	0.000	
2	  CA	110.764	7.637	98.624	C.3	1	MET343	0.000	
3	   C	110.043	7.695	99.962	C.2	1	MET343	0.000	
4	   O	109.164	8.534	100.157	O.2	1	MET343	0.000	
5	  CB	110.233	6.445	97.837	C.3	1	MET343	0.000	
6	  CG	110.240	6.648	96.329	C.3	1	MET343	0.000	
7	  SD	109.254	8.102	95.810	S.3	1	MET343	0.000	
8	  CE	107.621	7.770	96.516	C.3	1	MET343	0.000	
9	   N	110.790	11.234	101.545	N.3	2	LEU346	0.000	
10	  CA	109.958	12.303	100.989	C.3	2	LEU346	0.000	
11	   C	108.489	12.030	101.354	C.2	2	LEU346	0.000	
12	   O	107.719	12.946	101.660	O.2	2	LEU346	0.000	
13	  CB	110.126	12.360	99.464	C.3	2	LEU346	0.000	
14	  CG	111.547	12.649	98.979	C.3	2	LEU346	0.000	
15	 CD1	111.640	12.542	97.474	C.3	2	LEU346	0.000	
16	 CD2	111.963	14.021	99.452	C.3	2	LEU346	0.000	
17	   N	108.116	10.758	101.328	N.am	3	THR347	0.000	
18	  CA	106.765	10.362	101.648	C.3	3	THR347	0.000	
19	   C	106.336	10.657	103.082	C.2	3	THR347	0.000	
20	   O	105.213	11.122	103.313	O.2	3	THR347	0.000	
21	  CB	106.582	8.888	101.364	C.3	3	THR347	0.000	
22	 CG2	105.312	8.353	102.016	C.3	3	THR347	0.000	
23	 OG1	106.534	8.705	99.945	O.3	3	THR347	0.000	
24	   N	107.683	12.917	105.119	N.3	4	LEU349	0.000	
25	  CA	107.691	14.379	105.202	C.3	4	LEU349	0.000	
26	   C	106.356	14.884	104.687	C.2	4	LEU349	0.000	
27	   O	105.738	15.751	105.278	O.2	4	LEU349	0.000	
28	  CB	108.809	14.943	104.334	C.3	4	LEU349	0.000	
29	  CG	108.897	16.461	104.251	C.3	4	LEU349	0.000	
30	 CD1	109.007	16.966	105.652	C.3	4	LEU349	0.000	
31	 CD2	110.093	16.927	103.420	C.3	4	LEU349	0.000	
32	   N	105.905	14.318	103.577	N.am	5	ALA350	0.000	
33	  CA	104.634	14.712	103.008	C.3	5	ALA350	0.000	
34	   C	103.449	14.347	103.908	C.2	5	ALA350	0.000	
35	   O	102.596	15.203	104.190	O.2	5	ALA350	0.000	
36	  CB	104.464	14.076	101.649	C.3	5	ALA350	0.000	
37	   N	103.417	16.944	106.610	N.3	6	GLU353	0.000	
38	  CA	103.047	18.295	106.162	C.3	6	GLU353	0.000	
39	   C	101.569	18.318	105.901	C.2	6	GLU353	0.000	
40	   O	100.910	19.359	106.000	O.2	6	GLU353	0.000	
41	  CB	103.727	18.642	104.868	C.3	6	GLU353	0.000	
42	  CG	105.109	19.058	105.045	C.3	6	GLU353	0.000	
43	  CD	105.702	19.417	103.747	C.2	6	GLU353	0.000	
44	 OE1	105.891	18.500	102.923	O.co2	6	GLU353	0.000	
45	 OE2	105.955	20.618	103.544	O.co2	6	GLU353	0.000	
46	   N	98.700	17.823	96.644	N.3	7	LEU384	0.000	
47	  CA	100.031	17.787	96.049	C.3	7	LEU384	0.000	
48	   C	100.438	19.088	95.346	C.2	7	LEU384	0.000	
49	   O	101.630	19.377	95.233	O.2	7	LEU384	0.000	
50	  CB	100.172	16.594	95.094	C.3	7	LEU384	0.000	
51	  CG	101.523	16.480	94.387	C.3	7	LEU384	0.000	
52	 CD1	102.679	16.449	95.405	C.3	7	LEU384	0.000	
53	 CD2	101.520	15.229	93.530	C.3	7	LEU384	0.000	
54	   N	101.667	21.179	98.251	N.3	8	LEU387	0.000	
55	  CA	103.012	20.854	98.734	C.3	8	LEU387	0.000	
56	   C	104.012	21.352	97.729	C.2	8	LEU387	0.000	
57	   O	104.989	21.978	98.081	O.2	8	LEU387	0.000	
58	  CB	103.241	19.361	98.888	C.3	8	LEU387	0.000	
59	  CG	102.483	18.607	99.963	C.3	8	LEU387	0.000	
60	 CD1	102.980	17.207	99.926	C.3	8	LEU387	0.000	
61	 CD2	102.688	19.217	101.331	C.3	8	LEU387	0.000	
62	   N	103.767	21.085	96.464	N.am	9	MET388	0.000	
63	  CA	104.704	21.522	95.468	C.3	9	MET388	0.000	
64	   C	105.013	23.017	95.449	C.2	9	MET388	0.000	
65	   O	106.181	23.403	95.272	O.2	9	MET388	0.000	
66	  CB	104.247	21.039	94.100	C.3	9	MET388	0.000	
67	  CG	104.336	19.543	94.010	C.3	9	MET388	0.000	
68	  SD	104.131	18.976	92.374	S.3	9	MET388	0.000	
69	  CE	104.602	17.301	92.499	C.3	9	MET388	0.000	
70	   N	107.262	23.714	98.471	N.3	10	LEU391	0.000	
71	  CA	108.585	23.210	98.187	C.3	10	LEU391	0.000	
72	   C	109.298	24.169	97.264	C.2	10	LEU391	0.000	
73	   O	110.466	24.483	97.466	O.2	10	LEU391	0.000	
74	  CB	108.510	21.837	97.537	C.3	10	LEU391	0.000	
75	  CG	109.832	21.392	96.895	C.3	10	LEU391	0.000	
76	 CD1	110.911	21.259	97.922	C.3	10	LEU391	0.000	
77	 CD2	109.643	20.085	96.202	C.3	10	LEU391	0.000	
78	   N	110.295	27.531	99.105	N.3	11	ARG394	0.000	
79	  CA	111.461	27.274	99.960	C.3	11	ARG394	0.000	
80	   C	112.756	27.068	99.155	C.2	11	ARG394	0.000	
81	   O	113.844	27.404	99.643	O.2	11	ARG394	0.000	
82	  CB	111.262	26.006	100.809	C.3	11	ARG394	0.000	
83	  CG	110.034	25.974	101.674	C.3	11	ARG394	0.000	
84	  CD	110.153	24.878	102.698	C.3	11	ARG394	0.000	
85	  NE	109.924	23.537	102.187	N.pl3	11	ARG394	0.000	
86	  CZ	108.716	23.038	101.973	C.cat	11	ARG394	0.000	
87	 NH1	107.641	23.780	102.224	N.pl3	11	ARG394	0.000	
88	 NH2	108.572	21.792	101.552	N.pl3	11	ARG394	0.000	
89	   N	113.446	20.449	100.535	N.3	12	PHE404	0.000	
90	  CA	112.245	19.747	100.992	C.3	12	PHE404	0.000	
91	   C	112.020	20.109	102.430	C.2	12	PHE404	0.000	
92	   O	110.890	20.281	102.881	O.2	12	PHE404	0.000	
93	  CB	112.386	18.226	100.855	C.3	12	PHE404	0.000	
94	  CG	112.170	17.738	99.455	C.2	12	PHE404	0.000	
95	 CD1	113.145	17.914	98.484	C.2	12	PHE404	0.000	
96	 CD2	110.935	17.201	99.075	C.2	12	PHE404	0.000	
97	 CE1	112.897	17.569	97.134	C.2	12	PHE404	0.000	
98	 CE2	110.677	16.855	97.747	C.2	12	PHE404	0.000	
99	  CZ	111.669	17.044	96.772	C.2	12	PHE404	0.000	
100	   N	112.151	10.090	88.489	N.3	13	MET421	0.000	
101	  CA	111.713	11.231	89.272	C.3	13	MET421	0.000	
102	   C	112.607	12.441	89.030	C.2	13	MET421	0.000	
103	   O	112.552	13.410	89.778	O.2	13	MET421	0.000	
104	  CB	111.714	10.919	90.755	C.3	13	MET421	0.000	
105	  CG	111.016	11.997	91.515	C.3	13	MET421	0.000	
106	  SD	111.581	12.189	93.183	S.3	13	MET421	0.000	
107	  CE	111.131	10.587	93.942	C.3	13	MET421	0.000	
108	   N	110.314	15.142	87.283	N.3	14	ILE424	0.000	
109	  CA	109.531	15.948	88.189	C.3	14	ILE424	0.000	
110	   C	110.401	16.925	88.969	C.2	14	ILE424	0.000	
111	   O	109.941	17.980	89.413	O.2	14	ILE424	0.000	
112	  CB	108.692	15.046	89.105	C.3	14	ILE424	0.000	
113	 CG1	107.737	14.238	88.224	C.3	14	ILE424	0.000	
114	 CG2	107.848	15.873	90.063	C.3	14	ILE424	0.000	
115	 CD1	106.947	13.188	88.937	C.3	14	ILE424	0.000	
116	   N	110.164	21.065	88.968	N.3	15	LEU428	0.000	
117	  CA	110.151	21.780	90.226	C.3	15	LEU428	0.000	
118	   C	111.312	22.781	90.269	C.2	15	LEU428	0.000	
119	   O	111.130	23.901	90.731	O.2	15	LEU428	0.000	
120	  CB	110.220	20.803	91.389	C.3	15	LEU428	0.000	
121	  CG	108.932	20.008	91.570	C.3	15	LEU428	0.000	
122	 CD1	109.162	19.002	92.641	C.3	15	LEU428	0.000	
123	 CD2	107.763	20.913	91.948	C.3	15	LEU428	0.000	
124	   N	103.201	14.115	89.277	N.3	16	GLY521	0.000	
125	  CA	103.562	13.605	90.572	C.3	16	GLY521	0.000	
126	   C	102.592	12.506	90.946	C.2	16	GLY521	0.000	
127	   O	103.001	11.400	91.295	O.2	16	GLY521	0.000	
128	   N	103.520	9.389	89.193	N.3	17	HIS524	0.000	
129	  CA	104.722	8.795	89.717	C.3	17	HIS524	0.000	
130	   C	104.575	8.252	91.126	C.2	17	HIS524	0.000	
131	   O	105.223	7.253	91.482	O.2	17	HIS524	0.000	
132	  CB	105.862	9.782	89.691	C.3	17	HIS524	0.000	
133	  CG	107.077	9.284	90.398	C.2	17	HIS524	0.000	
134	 CD2	108.267	8.850	89.929	C.2	17	HIS524	0.000	
135	 ND1	107.136	9.165	91.771	N.2	17	HIS524	0.000	
136	 CE1	108.314	8.684	92.115	C.2	17	HIS524	0.000	
137	 NE2	109.019	8.483	91.017	N.pl3	17	HIS524	0.000	
138	   N	103.747	8.900	91.942	N.am	18	LEU525	0.000	
139	  CA	103.550	8.414	93.303	C.3	18	LEU525	0.000	
140	   C	102.859	7.052	93.278	C.2	18	LEU525	0.000	
141	   O	103.386	6.090	93.825	O.2	18	LEU525	0.000	
142	  CB	102.700	9.377	94.126	C.3	18	LEU525	0.000	
143	  CG	102.623	8.948	95.590	C.3	18	LEU525	0.000	
144	 CD1	103.978	9.199	96.229	C.3	18	LEU525	0.000	
145	 CD2	101.552	9.719	96.328	C.3	18	LEU525	0.000	
146	   N	104.693	3.988	92.304	N.3	19	MET528	0.000	
147	  CA	105.597	3.506	93.332	C.3	19	MET528	0.000	
148	   C	104.828	2.570	94.237	C.2	19	MET528	0.000	
149	   O	105.318	1.496	94.564	O.2	19	MET528	0.000	
150	  CB	106.164	4.657	94.170	C.3	19	MET528	0.000	
151	  CG	107.079	5.600	93.413	C.3	19	MET528	0.000	
152	  SD	108.530	4.793	92.711	S.3	19	MET528	0.000	
153	  CE	109.261	4.105	94.229	C.3	19	MET528	0.000	
@<TRIPOS>BOND
1 1 2 1
2 2 3 1
3 2 5 1
4 3 4 2
5 5 6 1
6 6 7 1
7 7 8 1
8 9 10 1
9 10 11 1
10 10 13 1
11 11 12 2
12 11 17 1
13 13 14 1
14 14 15 1
15 14 16 1
16 17 18 1
17 18 19 1
18 18 21 1
19 19 20 2
20 21 22 1
21 21 23 1
22 24 25 1
23 25 26 1
24 25 28 1
25 26 27 2
26 26 32 1
27 28 29 1
28 29 30 1
29 29 31 1
30 32 33 1
31 33 34 1
32 33 36 1
33 34 35 2
34 37 38 1
35 38 39 1
36 38 41 1
37 39 40 2
38 41 42 1
39 42 43 1
40 43 44 2
41 43 45 1
42 46 47 1
43 47 48 1
44 47 50 1
45 48 49 2
46 50 51 1
47 51 52 1
48 51 53 1
49 54 55 1
50 55 56 1
51 55 58 1
52 56 57 2
53 56 62 1
54 58 59 1
55 59 60 1
56 59 61 1
57 62 63 1
58 63 64 1
59 63 66 1
60 64 65 2
61 66 67 1
62 67 68 1
63 68 69 1
64 70 71 1
65 71 72 1
66 71 74 1
67 72 73 2
68 74 75 1
69 75 76 1
70 75 77 1
71 78 79 1
72 79 80 1
73 79 82 1
74 80 81 2
75 82 83 1
76 83 84 1
77 84 85 1
78 85 86 1
79 86 87 2
80 86 88 1
81 89 90 1
82 90 91 1
83 90 93 1
84 91 92 2
85 93 94 1
86 94 95 2
87 94 96 1
88 95 97 1
89 96 98 2
90 97 99 2
91 98 99 1
92 100 101 1
93 101 102 1
94 101 104 1
95 102 103 2
96 104 105 1
97 105 106 1
98 106 107 1
99 108 109 1
100 109 110 1
101 109 112 1
102 110 111 2
103 112 113 1
104 112 114 1
105 113 115 1
106 116 117 1
107 117 118 1
108 117 120 1
109 118 119 2
110 120 121 1
111 121 122 1
112 121 123 1
113 124 125 1
114 125 126 1
115 126 127 2
116 128 129 1
117 129 130 1
118 129 132 1
119 130 131 2
120 130 138 1
121 132 133 1
122 133 134 2
123 133 135 1
124 134 137 1
125 135 136 2
126 136 137 1
127 138 139 1
128 139 140 1
129 139 142 1
130 140 141 2
131 142 143 1
132 143 144 1
133 143 145 1
134 146 147 1
135 147 148 1
136 147 150 1
137 148 149 2
138 150 151 1
139 151 152 1
140 152 153 1
@<TRIPOS>SUBSTRUCTURE
1	MET343	1	RESIDUE	1 A	MET
2	LEU346	9	RESIDUE	1 A	LEU
3	THR347	17	RESIDUE	1 A	THR
4	LEU349	24	RESIDUE	1 A	LEU
5	ALA350	32	RESIDUE	1 A	ALA
6	GLU353	37	RESIDUE	1 A	GLU
7	LEU384	46	RESIDUE	1 A	LEU
8	LEU387	54	RESIDUE	1 A	LEU
9	MET388	62	RESIDUE	1 A	MET
10	LEU391	70	RESIDUE	1 A	LEU
11	ARG394	78	RESIDUE	1 A	ARG
12	PHE404	89	RESIDUE	1 A	PHE
13	MET421	100	RESIDUE	1 A	MET
14	ILE424	108	RESIDUE	1 A	ILE
15	LEU428	116	RESIDUE	1 A	LEU
16	GLY521	124	RESIDUE	1 A	GLY
17	HIS524	128	RESIDUE	1 A	HIS
18	LEU525	138	RESIDUE	1 A	LEU
19	MET528	146	RESIDUE	1 A	MET
