# created with PyMOL 2.5.0
@<TRIPOS>MOLECULE
1uom
191 179 23              
SMALL
USER_CHARGES
@<TRIPOS>ATOM
1	   N	-6.502	57.406	31.138	N.3	1	MET343	0.000	
2	  CA	-6.495	56.852	29.787	C.3	1	MET343	0.000	
3	   C	-5.820	57.840	28.840	C.2	1	MET343	0.000	
4	   O	-4.969	57.461	28.026	O.2	1	MET343	0.000	
5	  CB	-7.932	56.573	29.332	C.3	1	MET343	0.000	
6	  CG	-8.056	55.605	28.158	C.3	1	MET343	0.000	
7	  SD	-7.407	53.940	28.503	S.3	1	MET343	0.000	
8	  CE	-6.155	53.815	27.278	C.3	1	MET343	0.000	
9	   N	-1.997	57.634	29.167	N.3	2	LEU346	0.000	
10	  CA	-1.485	56.419	28.534	C.3	2	LEU346	0.000	
11	   C	-1.613	56.482	27.012	C.2	2	LEU346	0.000	
12	   O	-0.676	56.137	26.290	O.2	2	LEU346	0.000	
13	  CB	-2.232	55.190	29.070	C.3	2	LEU346	0.000	
14	  CG	-1.653	54.472	30.291	C.3	2	LEU346	0.000	
15	 CD1	-1.023	55.458	31.251	C.3	2	LEU346	0.000	
16	 CD2	-2.753	53.677	30.962	C.3	2	LEU346	0.000	
17	   N	-2.768	56.933	26.531	N.am	3	THR347	0.000	
18	  CA	-3.007	57.033	25.095	C.3	3	THR347	0.000	
19	   C	-1.981	57.905	24.381	C.2	3	THR347	0.000	
20	   O	-1.372	57.479	23.399	O.2	3	THR347	0.000	
21	  CB	-4.391	57.605	24.798	C.3	3	THR347	0.000	
22	 CG2	-4.597	57.739	23.295	C.3	3	THR347	0.000	
23	 OG1	-5.387	56.732	25.338	O.3	3	THR347	0.000	
24	   N	0.883	58.784	25.396	N.3	4	LEU349	0.000	
25	  CA	2.197	58.180	25.546	C.3	4	LEU349	0.000	
26	   C	2.437	57.100	24.488	C.2	4	LEU349	0.000	
27	   O	3.457	57.108	23.794	O.2	4	LEU349	0.000	
28	  CB	2.333	57.571	26.937	C.3	4	LEU349	0.000	
29	  CG	3.643	56.825	27.195	C.3	4	LEU349	0.000	
30	 CD1	4.808	57.800	27.177	C.3	4	LEU349	0.000	
31	 CD2	3.558	56.109	28.530	C.3	4	LEU349	0.000	
32	   N	1.492	56.172	24.364	N.am	5	ALA350	0.000	
33	  CA	1.621	55.077	23.404	C.3	5	ALA350	0.000	
34	   C	1.707	55.579	21.967	C.2	5	ALA350	0.000	
35	   O	2.516	55.084	21.173	O.2	5	ALA350	0.000	
36	  CB	0.446	54.097	23.553	C.3	5	ALA350	0.000	
37	   N	0.879	56.564	21.631	N.am	6	ASP351	0.000	
38	  CA	0.885	57.105	20.278	C.3	6	ASP351	0.000	
39	   C	2.247	57.658	19.889	C.2	6	ASP351	0.000	
40	   O	2.616	57.611	18.716	O.2	6	ASP351	0.000	
41	  CB	-0.194	58.177	20.125	C.3	6	ASP351	0.000	
42	  CG	-1.593	57.625	20.327	C.2	6	ASP351	0.000	
43	 OD1	-1.727	56.430	20.664	O.co2	6	ASP351	0.000	
44	 OD2	-2.567	58.388	20.159	O.co2	6	ASP351	0.000	
45	   N	5.200	56.553	21.295	N.3	7	GLU353	0.000	
46	  CA	6.141	55.449	21.263	C.3	7	GLU353	0.000	
47	   C	5.987	54.710	19.948	C.2	7	GLU353	0.000	
48	   O	6.952	54.157	19.415	O.2	7	GLU353	0.000	
49	  CB	5.865	54.476	22.394	C.3	7	GLU353	0.000	
50	  CG	6.054	55.044	23.760	C.3	7	GLU353	0.000	
51	  CD	5.646	54.049	24.820	C.2	7	GLU353	0.000	
52	 OE1	6.445	53.146	25.141	O.co2	7	GLU353	0.000	
53	 OE2	4.503	54.170	25.315	O.co2	7	GLU353	0.000	
54	   N	4.764	54.693	19.429	N.am	8	LEU354	0.000	
55	  CA	4.493	53.987	18.179	C.3	8	LEU354	0.000	
56	   C	5.424	54.471	17.077	C.2	8	LEU354	0.000	
57	   O	5.966	53.673	16.302	O.2	8	LEU354	0.000	
58	  CB	3.037	54.184	17.750	C.3	8	LEU354	0.000	
59	  CG	2.645	53.436	16.474	C.3	8	LEU354	0.000	
60	 CD1	2.741	51.940	16.726	C.3	8	LEU354	0.000	
61	 CD2	1.236	53.814	16.065	C.3	8	LEU354	0.000	
62	   N	2.052	45.621	17.404	N.3	9	TRP383	0.000	
63	  CA	2.224	46.910	18.081	C.3	9	TRP383	0.000	
64	   C	1.931	46.969	19.586	C.2	9	TRP383	0.000	
65	   O	2.780	47.405	20.365	O.2	9	TRP383	0.000	
66	  CB	1.445	48.028	17.346	C.3	9	TRP383	0.000	
67	  CG	-0.018	48.125	17.656	C.2	9	TRP383	0.000	
68	 CD1	-1.041	47.505	16.998	C.2	9	TRP383	0.000	
69	 CD2	-0.627	48.900	18.704	C.2	9	TRP383	0.000	
70	 CE2	-2.019	48.698	18.617	C.2	9	TRP383	0.000	
71	 CE3	-0.127	49.744	19.708	C.2	9	TRP383	0.000	
72	 NE1	-2.244	47.843	17.568	N.pl3	9	TRP383	0.000	
73	 CZ2	-2.923	49.311	19.490	C.2	9	TRP383	0.000	
74	 CZ3	-1.029	50.357	20.579	C.2	9	TRP383	0.000	
75	 CH2	-2.411	50.135	20.464	C.2	9	TRP383	0.000	
76	   N	0.746	46.542	20.004	N.am	10	LEU384	0.000	
77	  CA	0.405	46.584	21.426	C.3	10	LEU384	0.000	
78	   C	1.200	45.580	22.266	C.2	10	LEU384	0.000	
79	   O	1.515	45.855	23.421	O.2	10	LEU384	0.000	
80	  CB	-1.096	46.346	21.632	C.3	10	LEU384	0.000	
81	  CG	-1.610	46.470	23.069	C.3	10	LEU384	0.000	
82	 CD1	-1.187	47.810	23.670	C.3	10	LEU384	0.000	
83	 CD2	-3.131	46.346	23.075	C.3	10	LEU384	0.000	
84	   N	4.492	47.259	22.926	N.3	11	LEU387	0.000	
85	  CA	4.387	48.318	23.914	C.3	11	LEU387	0.000	
86	   C	4.335	47.673	25.308	C.2	11	LEU387	0.000	
87	   O	4.988	48.143	26.251	O.2	11	LEU387	0.000	
88	  CB	3.125	49.147	23.681	C.3	11	LEU387	0.000	
89	  CG	3.151	50.164	22.536	C.3	11	LEU387	0.000	
90	 CD1	1.934	51.035	22.675	C.3	11	LEU387	0.000	
91	 CD2	4.403	51.043	22.584	C.3	11	LEU387	0.000	
92	   N	3.569	46.586	25.422	N.am	12	MET388	0.000	
93	  CA	3.415	45.864	26.684	C.3	12	MET388	0.000	
94	   C	4.690	45.182	27.183	C.2	12	MET388	0.000	
95	   O	5.080	45.359	28.340	O.2	12	MET388	0.000	
96	  CB	2.278	44.821	26.577	C.3	12	MET388	0.000	
97	  CG	0.875	45.422	26.466	C.3	12	MET388	0.000	
98	  SD	-0.471	44.221	26.436	S.3	12	MET388	0.000	
99	  CE	-1.662	45.025	27.468	C.3	12	MET388	0.000	
100	   N	6.825	47.786	28.513	N.3	13	LEU391	0.000	
101	  CA	6.366	48.294	29.803	C.3	13	LEU391	0.000	
102	   C	6.771	47.346	30.938	C.2	13	LEU391	0.000	
103	   O	7.297	47.771	31.966	O.2	13	LEU391	0.000	
104	  CB	4.847	48.445	29.793	C.3	13	LEU391	0.000	
105	  CG	4.152	48.727	31.128	C.3	13	LEU391	0.000	
106	 CD1	4.783	49.946	31.826	C.3	13	LEU391	0.000	
107	 CD2	2.674	48.978	30.860	C.3	13	LEU391	0.000	
108	   N	10.731	47.530	31.813	N.3	14	ARG394	0.000	
109	  CA	11.153	48.638	32.653	C.3	14	ARG394	0.000	
110	   C	10.484	48.682	34.016	C.2	14	ARG394	0.000	
111	   O	10.909	49.434	34.894	O.2	14	ARG394	0.000	
112	  CB	10.954	49.964	31.929	C.3	14	ARG394	0.000	
113	  CG	9.598	50.195	31.335	C.3	14	ARG394	0.000	
114	  CD	9.562	51.606	30.759	C.3	14	ARG394	0.000	
115	  NE	8.247	51.978	30.259	N.pl3	14	ARG394	0.000	
116	  CZ	7.792	51.661	29.052	C.cat	14	ARG394	0.000	
117	 NH1	8.554	50.967	28.212	N.pl3	14	ARG394	0.000	
118	 NH2	6.573	52.033	28.691	N.pl3	14	ARG394	0.000	
119	   N	5.288	53.289	33.399	N.3	15	PHE404	0.000	
120	  CA	4.813	53.661	32.076	C.3	15	PHE404	0.000	
121	   C	5.785	54.645	31.443	C.2	15	PHE404	0.000	
122	   O	5.928	54.693	30.222	O.2	15	PHE404	0.000	
123	  CB	3.428	54.306	32.179	C.3	15	PHE404	0.000	
124	  CG	2.313	53.330	32.439	C.2	15	PHE404	0.000	
125	 CD1	1.794	52.557	31.402	C.2	15	PHE404	0.000	
126	 CD2	1.761	53.201	33.714	C.2	15	PHE404	0.000	
127	 CE1	0.738	51.671	31.628	C.2	15	PHE404	0.000	
128	 CE2	0.707	52.321	33.953	C.2	15	PHE404	0.000	
129	  CZ	0.193	51.551	32.904	C.2	15	PHE404	0.000	
130	   N	-9.670	48.541	33.986	N.3	16	MET421	0.000	
131	  CA	-8.262	48.765	33.711	C.3	16	MET421	0.000	
132	   C	-7.378	48.081	34.745	C.2	16	MET421	0.000	
133	   O	-6.228	47.752	34.467	O.2	16	MET421	0.000	
134	  CB	-7.961	50.261	33.685	C.3	16	MET421	0.000	
135	  CG	-6.540	50.587	33.287	C.3	16	MET421	0.000	
136	  SD	-6.197	52.313	33.561	S.3	16	MET421	0.000	
137	  CE	-6.718	53.023	31.987	C.3	16	MET421	0.000	
138	   N	-6.138	44.673	33.586	N.3	17	ILE424	0.000	
139	  CA	-4.978	44.739	32.719	C.3	17	ILE424	0.000	
140	   C	-3.697	45.053	33.491	C.2	17	ILE424	0.000	
141	   O	-2.652	44.473	33.200	O.2	17	ILE424	0.000	
142	  CB	-5.233	45.767	31.597	C.3	17	ILE424	0.000	
143	 CG1	-6.456	45.313	30.784	C.3	17	ILE424	0.000	
144	 CG2	-4.025	45.876	30.686	C.3	17	ILE424	0.000	
145	 CD1	-6.858	46.246	29.666	C.3	17	ILE424	0.000	
146	   N	-0.321	42.757	33.867	N.3	18	LEU428	0.000	
147	  CA	0.978	43.334	33.567	C.3	18	LEU428	0.000	
148	   C	1.933	43.162	34.735	C.2	18	LEU428	0.000	
149	   O	3.073	42.753	34.549	O.2	18	LEU428	0.000	
150	  CB	0.824	44.815	33.220	C.3	18	LEU428	0.000	
151	  CG	0.187	44.989	31.840	C.3	18	LEU428	0.000	
152	 CD1	-0.401	46.366	31.717	C.3	18	LEU428	0.000	
153	 CD2	1.223	44.728	30.758	C.3	18	LEU428	0.000	
154	   N	-6.242	44.048	26.096	N.3	19	GLY521	0.000	
155	  CA	-5.981	45.459	25.889	C.3	19	GLY521	0.000	
156	   C	-6.693	46.000	24.662	C.2	19	GLY521	0.000	
157	   O	-7.172	47.129	24.677	O.2	19	GLY521	0.000	
158	   N	-10.545	46.608	25.661	N.3	20	HIS524	0.000	
159	  CA	-10.709	47.785	26.495	C.3	20	HIS524	0.000	
160	   C	-10.509	48.984	25.584	C.2	20	HIS524	0.000	
161	   O	-11.301	49.926	25.580	O.2	20	HIS524	0.000	
162	  CB	-9.662	47.767	27.609	C.3	20	HIS524	0.000	
163	  CG	-9.819	48.871	28.605	C.2	20	HIS524	0.000	
164	 CD2	-10.175	48.847	29.910	C.2	20	HIS524	0.000	
165	 ND1	-9.592	50.194	28.293	N.2	20	HIS524	0.000	
166	 CE1	-9.800	50.938	29.365	C.2	20	HIS524	0.000	
167	 NE2	-10.154	50.145	30.360	N.pl3	20	HIS524	0.000	
168	   N	-9.447	48.922	24.789	N.am	21	LEU525	0.000	
169	  CA	-9.131	49.985	23.850	C.3	21	LEU525	0.000	
170	   C	-10.235	50.073	22.802	C.2	21	LEU525	0.000	
171	   O	-10.736	51.154	22.503	O.2	21	LEU525	0.000	
172	  CB	-7.798	49.691	23.170	C.3	21	LEU525	0.000	
173	  CG	-6.852	50.876	23.017	C.3	21	LEU525	0.000	
174	 CD1	-6.595	51.497	24.388	C.3	21	LEU525	0.000	
175	 CD2	-5.552	50.408	22.372	C.3	21	LEU525	0.000	
176	   N	-5.575	51.863	11.507	N.3	22	LEU536	0.000	
177	  CA	-4.217	51.670	12.005	C.3	22	LEU536	0.000	
178	   C	-3.288	51.254	10.873	C.2	22	LEU536	0.000	
179	   O	-2.105	51.594	10.876	O.2	22	LEU536	0.000	
180	  CB	-4.189	50.611	13.112	C.3	22	LEU536	0.000	
181	  CG	-2.838	50.453	13.816	C.3	22	LEU536	0.000	
182	 CD1	-2.485	51.755	14.515	C.3	22	LEU536	0.000	
183	 CD2	-2.890	49.306	14.809	C.3	22	LEU536	0.000	
184	   N	-2.279	54.366	8.930	N.3	23	LEU539	0.000	
185	  CA	-1.450	55.141	9.839	C.3	23	LEU539	0.000	
186	   C	-0.048	54.538	9.814	C.2	23	LEU539	0.000	
187	   O	0.945	55.237	9.588	O.2	23	LEU539	0.000	
188	  CB	-2.037	55.062	11.254	C.3	23	LEU539	0.000	
189	  CG	-1.390	55.827	12.412	C.3	23	LEU539	0.000	
190	 CD1	-1.360	57.318	12.116	C.3	23	LEU539	0.000	
191	 CD2	-2.187	55.563	13.682	C.3	23	LEU539	0.000	
@<TRIPOS>BOND
1 1 2 1
2 2 3 1
3 2 5 1
4 3 4 2
5 5 6 1
6 6 7 1
7 7 8 1
8 9 10 1
9 10 11 1
10 10 13 1
11 11 12 2
12 11 17 1
13 13 14 1
14 14 15 1
15 14 16 1
16 17 18 1
17 18 19 1
18 18 21 1
19 19 20 2
20 21 22 1
21 21 23 1
22 24 25 1
23 25 26 1
24 25 28 1
25 26 27 2
26 26 32 1
27 28 29 1
28 29 30 1
29 29 31 1
30 32 33 1
31 33 34 1
32 33 36 1
33 34 35 2
34 34 37 1
35 37 38 1
36 38 39 1
37 38 41 1
38 39 40 2
39 41 42 1
40 42 43 2
41 42 44 1
42 45 46 1
43 46 47 1
44 46 49 1
45 47 48 2
46 47 54 1
47 49 50 1
48 50 51 1
49 51 52 2
50 51 53 1
51 54 55 1
52 55 56 1
53 55 58 1
54 56 57 2
55 58 59 1
56 59 60 1
57 59 61 1
58 62 63 1
59 63 64 1
60 63 66 1
61 64 65 2
62 64 76 1
63 66 67 1
64 67 68 2
65 67 69 1
66 68 72 1
67 69 70 2
68 69 71 1
69 70 73 1
70 71 74 2
71 70 72 1
72 73 75 2
73 74 75 1
74 76 77 1
75 77 78 1
76 77 80 1
77 78 79 2
78 80 81 1
79 81 82 1
80 81 83 1
81 84 85 1
82 85 86 1
83 85 88 1
84 86 87 2
85 86 92 1
86 88 89 1
87 89 90 1
88 89 91 1
89 92 93 1
90 93 94 1
91 93 96 1
92 94 95 2
93 96 97 1
94 97 98 1
95 98 99 1
96 100 101 1
97 101 102 1
98 101 104 1
99 102 103 2
100 104 105 1
101 105 106 1
102 105 107 1
103 108 109 1
104 109 110 1
105 109 112 1
106 110 111 2
107 112 113 1
108 113 114 1
109 114 115 1
110 115 116 1
111 116 117 2
112 116 118 1
113 119 120 1
114 120 121 1
115 120 123 1
116 121 122 2
117 123 124 1
118 124 125 2
119 124 126 1
120 125 127 1
121 126 128 2
122 127 129 2
123 128 129 1
124 130 131 1
125 131 132 1
126 131 134 1
127 132 133 2
128 134 135 1
129 135 136 1
130 136 137 1
131 138 139 1
132 139 140 1
133 139 142 1
134 140 141 2
135 142 143 1
136 142 144 1
137 143 145 1
138 146 147 1
139 147 148 1
140 147 150 1
141 148 149 2
142 150 151 1
143 151 152 1
144 151 153 1
145 154 155 1
146 155 156 1
147 156 157 2
148 158 159 1
149 159 160 1
150 159 162 1
151 160 161 2
152 160 168 1
153 162 163 1
154 163 164 2
155 163 165 1
156 164 167 1
157 165 166 2
158 166 167 1
159 168 169 1
160 169 170 1
161 169 172 1
162 170 171 2
163 172 173 1
164 173 174 1
165 173 175 1
166 176 177 1
167 177 178 1
168 177 180 1
169 178 179 2
170 180 181 1
171 181 182 1
172 181 183 1
173 184 185 1
174 185 186 1
175 185 188 1
176 186 187 2
177 188 189 1
178 189 190 1
179 189 191 1
@<TRIPOS>SUBSTRUCTURE
1	MET343	1	RESIDUE	1 A	MET
2	LEU346	9	RESIDUE	1 A	LEU
3	THR347	17	RESIDUE	1 A	THR
4	LEU349	24	RESIDUE	1 A	LEU
5	ALA350	32	RESIDUE	1 A	ALA
6	ASP351	37	RESIDUE	1 A	ASP
7	GLU353	45	RESIDUE	1 A	GLU
8	LEU354	54	RESIDUE	1 A	LEU
9	TRP383	62	RESIDUE	1 A	TRP
10	LEU384	76	RESIDUE	1 A	LEU
11	LEU387	84	RESIDUE	1 A	LEU
12	MET388	92	RESIDUE	1 A	MET
13	LEU391	100	RESIDUE	1 A	LEU
14	ARG394	108	RESIDUE	1 A	ARG
15	PHE404	119	RESIDUE	1 A	PHE
16	MET421	130	RESIDUE	1 A	MET
17	ILE424	138	RESIDUE	1 A	ILE
18	LEU428	146	RESIDUE	1 A	LEU
19	GLY521	154	RESIDUE	1 A	GLY
20	HIS524	158	RESIDUE	1 A	HIS
21	LEU525	168	RESIDUE	1 A	LEU
22	LEU536	176	RESIDUE	1 A	LEU
23	LEU539	184	RESIDUE	1 A	LEU
