# created with PyMOL 2.5.0
@<TRIPOS>MOLECULE
1xp1
215 202 26              
SMALL
USER_CHARGES
@<TRIPOS>ATOM
1	   N	35.569	-7.712	31.385	N.3	1	MET343	0.000	
2	  CA	35.570	-7.075	30.054	C.3	1	MET343	0.000	
3	   C	34.930	-8.000	29.019	C.2	1	MET343	0.000	
4	   O	34.203	-7.503	28.152	O.2	1	MET343	0.000	
5	  CB	36.956	-6.672	29.567	C.3	1	MET343	0.000	
6	  CG	36.936	-6.005	28.191	C.3	1	MET343	0.000	
7	  SD	36.254	-4.327	28.260	S.3	1	MET343	0.000	
8	  CE	36.705	-3.872	29.929	C.3	1	MET343	0.000	
9	   N	31.266	-7.722	29.437	N.3	2	LEU346	0.000	
10	  CA	30.740	-6.460	28.908	C.3	2	LEU346	0.000	
11	   C	30.847	-6.408	27.391	C.2	2	LEU346	0.000	
12	   O	29.944	-5.957	26.671	O.2	2	LEU346	0.000	
13	  CB	31.471	-5.298	29.589	C.3	2	LEU346	0.000	
14	  CG	31.268	-5.095	31.095	C.3	2	LEU346	0.000	
15	 CD1	32.143	-3.958	31.587	C.3	2	LEU346	0.000	
16	 CD2	29.808	-4.835	31.424	C.3	2	LEU346	0.000	
17	   N	31.971	-6.880	26.860	N.am	3	THR347	0.000	
18	  CA	32.150	-6.863	25.404	C.3	3	THR347	0.000	
19	   C	31.139	-7.736	24.690	C.2	3	THR347	0.000	
20	   O	30.597	-7.356	23.657	O.2	3	THR347	0.000	
21	  CB	33.573	-7.333	25.052	C.3	3	THR347	0.000	
22	 CG2	33.891	-7.138	23.580	C.3	3	THR347	0.000	
23	 OG1	34.470	-6.486	25.775	O.3	3	THR347	0.000	
24	   N	28.150	-8.540	25.681	N.3	4	LEU349	0.000	
25	  CA	26.888	-7.843	25.819	C.3	4	LEU349	0.000	
26	   C	26.720	-6.764	24.748	C.2	4	LEU349	0.000	
27	   O	25.763	-6.701	23.976	O.2	4	LEU349	0.000	
28	  CB	26.774	-7.194	27.206	C.3	4	LEU349	0.000	
29	  CG	25.472	-6.398	27.416	C.3	4	LEU349	0.000	
30	 CD1	24.256	-7.268	27.136	C.3	4	LEU349	0.000	
31	 CD2	25.406	-5.823	28.822	C.3	4	LEU349	0.000	
32	   N	27.711	-5.878	24.706	N.am	5	ALA350	0.000	
33	  CA	27.759	-4.799	23.738	C.3	5	ALA350	0.000	
34	   C	27.740	-5.316	22.307	C.2	5	ALA350	0.000	
35	   O	27.084	-4.692	21.471	O.2	5	ALA350	0.000	
36	  CB	28.994	-3.946	24.003	C.3	5	ALA350	0.000	
37	   N	28.409	-6.423	21.977	N.am	6	ASP351	0.000	
38	  CA	28.350	-6.849	20.571	C.3	6	ASP351	0.000	
39	   C	26.939	-7.322	20.239	C.2	6	ASP351	0.000	
40	   O	26.455	-7.158	19.126	O.2	6	ASP351	0.000	
41	  CB	29.377	-7.918	20.255	C.3	6	ASP351	0.000	
42	  CG	30.824	-7.508	20.424	C.2	6	ASP351	0.000	
43	 OD1	31.125	-6.297	20.435	O.co2	6	ASP351	0.000	
44	 OD2	31.696	-8.399	20.549	O.co2	6	ASP351	0.000	
45	   N	24.163	-6.241	21.437	N.3	7	GLU353	0.000	
46	  CA	23.292	-5.057	21.343	C.3	7	GLU353	0.000	
47	   C	23.396	-4.402	19.979	C.2	7	GLU353	0.000	
48	   O	22.468	-3.780	19.439	O.2	7	GLU353	0.000	
49	  CB	23.653	-4.088	22.459	C.3	7	GLU353	0.000	
50	  CG	22.969	-4.423	23.796	C.3	7	GLU353	0.000	
51	  CD	23.129	-3.237	24.742	C.2	7	GLU353	0.000	
52	 OE1	22.342	-2.272	24.773	O.co2	7	GLU353	0.000	
53	 OE2	24.105	-3.271	25.492	O.co2	7	GLU353	0.000	
54	   N	24.566	-4.524	19.361	N.am	8	LEU354	0.000	
55	  CA	24.772	-3.789	18.110	C.3	8	LEU354	0.000	
56	   C	23.817	-4.258	17.034	C.2	8	LEU354	0.000	
57	   O	23.344	-3.469	16.228	O.2	8	LEU354	0.000	
58	  CB	26.238	-3.910	17.668	C.3	8	LEU354	0.000	
59	  CG	26.632	-3.142	16.408	C.3	8	LEU354	0.000	
60	 CD1	26.580	-1.639	16.652	C.3	8	LEU354	0.000	
61	 CD2	28.016	-3.562	15.913	C.3	8	LEU354	0.000	
62	   N	27.682	4.799	17.701	N.3	9	TRP383	0.000	
63	  CA	27.306	3.551	18.359	C.3	9	TRP383	0.000	
64	   C	27.672	3.549	19.843	C.2	9	TRP383	0.000	
65	   O	26.859	2.989	20.588	O.2	9	TRP383	0.000	
66	  CB	27.905	2.310	17.692	C.3	9	TRP383	0.000	
67	  CG	29.390	2.188	17.903	C.2	9	TRP383	0.000	
68	 CD1	30.315	2.737	17.067	C.2	9	TRP383	0.000	
69	 CD2	30.120	1.537	18.927	C.2	9	TRP383	0.000	
70	 CE2	31.487	1.716	18.664	C.2	9	TRP383	0.000	
71	 CE3	29.757	0.789	20.073	C.2	9	TRP383	0.000	
72	 NE1	31.581	2.451	17.524	N.pl3	9	TRP383	0.000	
73	 CZ2	32.511	1.208	19.467	C.2	9	TRP383	0.000	
74	 CZ3	30.767	0.293	20.856	C.2	9	TRP383	0.000	
75	 CH2	32.120	0.485	20.579	C.2	9	TRP383	0.000	
76	   N	28.784	4.114	20.278	N.am	10	LEU384	0.000	
77	  CA	29.087	3.981	21.706	C.3	10	LEU384	0.000	
78	   C	28.237	4.962	22.506	C.2	10	LEU384	0.000	
79	   O	27.764	4.609	23.594	O.2	10	LEU384	0.000	
80	  CB	30.578	4.174	21.974	C.3	10	LEU384	0.000	
81	  CG	31.045	3.954	23.416	C.3	10	LEU384	0.000	
82	 CD1	30.518	2.648	23.984	C.3	10	LEU384	0.000	
83	 CD2	32.570	3.980	23.486	C.3	10	LEU384	0.000	
84	   N	24.932	3.152	22.902	N.3	11	LEU387	0.000	
85	  CA	24.984	2.174	23.992	C.3	11	LEU387	0.000	
86	   C	25.023	2.875	25.354	C.2	11	LEU387	0.000	
87	   O	24.348	2.461	26.301	O.2	11	LEU387	0.000	
88	  CB	26.220	1.290	23.909	C.3	11	LEU387	0.000	
89	  CG	26.347	0.290	22.766	C.3	11	LEU387	0.000	
90	 CD1	27.666	-0.471	22.877	C.3	11	LEU387	0.000	
91	 CD2	25.146	-0.644	22.763	C.3	11	LEU387	0.000	
92	   N	25.831	3.932	25.481	N.am	12	MET388	0.000	
93	  CA	25.950	4.531	26.802	C.3	12	MET388	0.000	
94	   C	24.663	5.224	27.244	C.2	12	MET388	0.000	
95	   O	24.294	5.072	28.412	O.2	12	MET388	0.000	
96	  CB	27.129	5.514	26.851	C.3	12	MET388	0.000	
97	  CG	28.495	4.849	26.771	C.3	12	MET388	0.000	
98	  SD	29.833	6.056	26.738	S.3	12	MET388	0.000	
99	  CE	31.192	5.037	27.339	C.3	12	MET388	0.000	
100	   N	22.523	2.614	28.603	N.3	13	LEU391	0.000	
101	  CA	22.952	2.129	29.915	C.3	13	LEU391	0.000	
102	   C	22.584	3.101	31.036	C.2	13	LEU391	0.000	
103	   O	22.127	2.743	32.121	O.2	13	LEU391	0.000	
104	  CB	24.465	1.910	29.882	C.3	13	LEU391	0.000	
105	  CG	25.146	1.584	31.211	C.3	13	LEU391	0.000	
106	 CD1	24.578	0.302	31.792	C.3	13	LEU391	0.000	
107	 CD2	26.648	1.476	30.998	C.3	13	LEU391	0.000	
108	   N	18.779	2.790	31.751	N.3	14	ARG394	0.000	
109	  CA	18.228	1.697	32.570	C.3	14	ARG394	0.000	
110	   C	18.907	1.696	33.940	C.2	14	ARG394	0.000	
111	   O	18.448	0.991	34.831	O.2	14	ARG394	0.000	
112	  CB	18.299	0.337	31.895	C.3	14	ARG394	0.000	
113	  CG	19.568	0.015	31.155	C.3	14	ARG394	0.000	
114	  CD	19.521	-1.318	30.405	C.3	14	ARG394	0.000	
115	  NE	20.890	-1.718	30.084	N.pl3	14	ARG394	0.000	
116	  CZ	21.587	-1.352	29.021	C.cat	14	ARG394	0.000	
117	 NH1	21.115	-0.551	28.069	N.pl3	14	ARG394	0.000	
118	 NH2	22.828	-1.813	28.894	N.pl3	14	ARG394	0.000	
119	   N	24.072	-2.933	33.517	N.3	15	PHE404	0.000	
120	  CA	24.531	-3.337	32.185	C.3	15	PHE404	0.000	
121	   C	23.494	-4.254	31.562	C.2	15	PHE404	0.000	
122	   O	23.192	-4.141	30.392	O.2	15	PHE404	0.000	
123	  CB	25.899	-4.023	32.243	C.3	15	PHE404	0.000	
124	  CG	26.990	-2.983	32.459	C.2	15	PHE404	0.000	
125	 CD1	27.479	-2.256	31.396	C.2	15	PHE404	0.000	
126	 CD2	27.499	-2.758	33.727	C.2	15	PHE404	0.000	
127	 CE1	28.458	-1.287	31.565	C.2	15	PHE404	0.000	
128	 CE2	28.469	-1.793	33.926	C.2	15	PHE404	0.000	
129	  CZ	28.954	-1.070	32.849	C.2	15	PHE404	0.000	
130	   N	38.942	1.628	34.125	N.3	16	MET421	0.000	
131	  CA	37.510	1.539	33.840	C.3	16	MET421	0.000	
132	   C	36.713	2.303	34.887	C.2	16	MET421	0.000	
133	   O	35.617	2.777	34.574	O.2	16	MET421	0.000	
134	  CB	37.028	0.082	33.713	C.3	16	MET421	0.000	
135	  CG	35.642	-0.072	33.096	C.3	16	MET421	0.000	
136	  SD	35.248	-1.747	32.537	S.3	16	MET421	0.000	
137	  CE	35.057	-2.595	34.109	C.3	16	MET421	0.000	
138	   N	35.543	5.674	33.699	N.3	17	ILE424	0.000	
139	  CA	34.374	5.635	32.822	C.3	17	ILE424	0.000	
140	   C	33.106	5.354	33.627	C.2	17	ILE424	0.000	
141	   O	32.078	6.016	33.439	O.2	17	ILE424	0.000	
142	  CB	34.504	4.599	31.690	C.3	17	ILE424	0.000	
143	 CG1	35.839	4.557	30.953	C.3	17	ILE424	0.000	
144	 CG2	33.357	4.801	30.702	C.3	17	ILE424	0.000	
145	 CD1	36.258	5.830	30.237	C.3	17	ILE424	0.000	
146	   N	29.606	7.611	33.821	N.3	18	LEU428	0.000	
147	  CA	28.282	7.065	33.508	C.3	18	LEU428	0.000	
148	   C	27.366	7.212	34.723	C.2	18	LEU428	0.000	
149	   O	26.190	7.587	34.660	O.2	18	LEU428	0.000	
150	  CB	28.364	5.601	33.082	C.3	18	LEU428	0.000	
151	  CG	29.089	5.292	31.770	C.3	18	LEU428	0.000	
152	 CD1	29.619	3.864	31.759	C.3	18	LEU428	0.000	
153	 CD2	28.189	5.545	30.558	C.3	18	LEU428	0.000	
154	   N	36.095	9.240	25.509	N.3	19	LYS520	0.000	
155	  CA	36.967	8.683	26.552	C.3	19	LYS520	0.000	
156	   C	36.893	7.159	26.544	C.2	19	LYS520	0.000	
157	   O	37.913	6.472	26.738	O.2	19	LYS520	0.000	
158	  CB	36.627	9.240	27.931	C.3	19	LYS520	0.000	
159	  CG	36.899	10.716	28.150	C.3	19	LYS520	0.000	
160	  CD	38.295	11.154	27.745	C.3	19	LYS520	0.000	
161	  CE	39.346	10.711	28.756	C.3	19	LYS520	0.000	
162	  NZ	40.480	11.650	28.938	N.4	19	LYS520	0.000	
163	   N	35.706	6.598	26.314	N.am	20	GLY521	0.000	
164	  CA	35.556	5.141	26.287	C.3	20	GLY521	0.000	
165	   C	36.228	4.532	25.072	C.2	20	GLY521	0.000	
166	   O	36.823	3.460	25.149	O.2	20	GLY521	0.000	
167	   N	39.802	4.402	25.902	N.3	21	HIS524	0.000	
168	  CA	40.066	3.325	26.846	C.3	21	HIS524	0.000	
169	   C	39.940	1.957	26.187	C.2	21	HIS524	0.000	
170	   O	40.808	1.092	26.384	O.2	21	HIS524	0.000	
171	  CB	39.132	3.469	28.055	C.3	21	HIS524	0.000	
172	  CG	39.325	2.422	29.113	C.2	21	HIS524	0.000	
173	 CD2	40.303	2.181	30.015	C.2	21	HIS524	0.000	
174	 ND1	38.392	1.439	29.329	N.2	21	HIS524	0.000	
175	 CE1	38.772	0.640	30.303	C.2	21	HIS524	0.000	
176	 NE2	39.940	1.075	30.743	N.pl3	21	HIS524	0.000	
177	   N	38.884	1.729	25.401	N.am	22	LEU525	0.000	
178	  CA	38.754	0.467	24.679	C.3	22	LEU525	0.000	
179	   C	39.958	0.242	23.757	C.2	22	LEU525	0.000	
180	   O	40.426	-0.888	23.657	O.2	22	LEU525	0.000	
181	  CB	37.470	0.410	23.848	C.3	22	LEU525	0.000	
182	  CG	36.149	0.455	24.612	C.3	22	LEU525	0.000	
183	 CD1	34.976	0.393	23.641	C.3	22	LEU525	0.000	
184	 CD2	36.075	-0.671	25.631	C.3	22	LEU525	0.000	
185	   N	39.481	-6.575	23.544	N.3	23	CYS530	0.000	
186	  CA	38.179	-6.170	23.068	C.3	23	CYS530	0.000	
187	   C	37.729	-6.893	21.800	C.2	23	CYS530	0.000	
188	   O	37.103	-7.946	21.855	O.2	23	CYS530	0.000	
189	  CB	38.215	-4.662	22.769	C.3	23	CYS530	0.000	
190	  SG	37.031	-3.698	23.715	S.3	23	CYS530	0.000	
191	   N	38.074	-6.263	20.685	N.am	24	LYS531	0.000	
192	  CA	37.808	-6.726	19.337	C.3	24	LYS531	0.000	
193	   C	37.995	-5.592	18.329	C.2	24	LYS531	0.000	
194	   O	37.363	-4.547	18.443	O.2	24	LYS531	0.000	
195	  CB	36.396	-7.305	19.223	C.3	24	LYS531	0.000	
196	  CG	35.884	-7.512	17.803	C.3	24	LYS531	0.000	
197	  CD	34.393	-7.808	17.820	C.3	24	LYS531	0.000	
198	  CE	33.765	-7.673	16.444	C.3	24	LYS531	0.000	
199	  NZ	32.292	-7.900	16.502	N.4	24	LYS531	0.000	
200	   N	35.116	-1.542	11.509	N.3	25	LEU536	0.000	
201	  CA	33.722	-1.347	11.874	C.3	25	LEU536	0.000	
202	   C	32.854	-0.960	10.687	C.2	25	LEU536	0.000	
203	   O	31.686	-1.354	10.632	O.2	25	LEU536	0.000	
204	  CB	33.586	-0.280	12.979	C.3	25	LEU536	0.000	
205	  CG	32.167	-0.281	13.568	C.3	25	LEU536	0.000	
206	 CD1	31.812	-1.718	13.923	C.3	25	LEU536	0.000	
207	 CD2	32.020	0.638	14.767	C.3	25	LEU536	0.000	
208	   N	31.634	-3.970	8.838	N.3	26	LEU539	0.000	
209	  CA	30.740	-4.859	9.591	C.3	26	LEU539	0.000	
210	   C	29.326	-4.271	9.682	C.2	26	LEU539	0.000	
211	   O	28.329	-4.999	9.574	O.2	26	LEU539	0.000	
212	  CB	31.343	-5.181	10.958	C.3	26	LEU539	0.000	
213	  CG	30.404	-5.924	11.913	C.3	26	LEU539	0.000	
214	 CD1	30.332	-7.397	11.537	C.3	26	LEU539	0.000	
215	 CD2	30.812	-5.723	13.372	C.3	26	LEU539	0.000	
@<TRIPOS>BOND
1 1 2 1
2 2 3 1
3 2 5 1
4 3 4 2
5 5 6 1
6 6 7 1
7 7 8 1
8 9 10 1
9 10 11 1
10 10 13 1
11 11 12 2
12 11 17 1
13 13 14 1
14 14 15 1
15 14 16 1
16 17 18 1
17 18 19 1
18 18 21 1
19 19 20 2
20 21 22 1
21 21 23 1
22 24 25 1
23 25 26 1
24 25 28 1
25 26 27 2
26 26 32 1
27 28 29 1
28 29 30 1
29 29 31 1
30 32 33 1
31 33 34 1
32 33 36 1
33 34 35 2
34 34 37 1
35 37 38 1
36 38 39 1
37 38 41 1
38 39 40 2
39 41 42 1
40 42 43 2
41 42 44 1
42 45 46 1
43 46 47 1
44 46 49 1
45 47 48 2
46 47 54 1
47 49 50 1
48 50 51 1
49 51 52 2
50 51 53 1
51 54 55 1
52 55 56 1
53 55 58 1
54 56 57 2
55 58 59 1
56 59 60 1
57 59 61 1
58 62 63 1
59 63 64 1
60 63 66 1
61 64 65 2
62 64 76 1
63 66 67 1
64 67 68 2
65 67 69 1
66 68 72 1
67 69 70 2
68 69 71 1
69 70 73 1
70 71 74 2
71 70 72 1
72 73 75 2
73 74 75 1
74 76 77 1
75 77 78 1
76 77 80 1
77 78 79 2
78 80 81 1
79 81 82 1
80 81 83 1
81 84 85 1
82 85 86 1
83 85 88 1
84 86 87 2
85 86 92 1
86 88 89 1
87 89 90 1
88 89 91 1
89 92 93 1
90 93 94 1
91 93 96 1
92 94 95 2
93 96 97 1
94 97 98 1
95 98 99 1
96 100 101 1
97 101 102 1
98 101 104 1
99 102 103 2
100 104 105 1
101 105 106 1
102 105 107 1
103 108 109 1
104 109 110 1
105 109 112 1
106 110 111 2
107 112 113 1
108 113 114 1
109 114 115 1
110 115 116 1
111 116 117 2
112 116 118 1
113 119 120 1
114 120 121 1
115 120 123 1
116 121 122 2
117 123 124 1
118 124 125 2
119 124 126 1
120 125 127 1
121 126 128 2
122 127 129 2
123 128 129 1
124 130 131 1
125 131 132 1
126 131 134 1
127 132 133 2
128 134 135 1
129 135 136 1
130 136 137 1
131 138 139 1
132 139 140 1
133 139 142 1
134 140 141 2
135 142 143 1
136 142 144 1
137 143 145 1
138 146 147 1
139 147 148 1
140 147 150 1
141 148 149 2
142 150 151 1
143 151 152 1
144 151 153 1
145 154 155 1
146 155 156 1
147 155 158 1
148 156 157 2
149 156 163 1
150 158 159 1
151 159 160 1
152 160 161 1
153 161 162 1
154 163 164 1
155 164 165 1
156 165 166 2
157 167 168 1
158 168 169 1
159 168 171 1
160 169 170 2
161 169 177 1
162 171 172 1
163 172 173 2
164 172 174 1
165 173 176 1
166 174 175 2
167 175 176 1
168 177 178 1
169 178 179 1
170 178 181 1
171 179 180 2
172 181 182 1
173 182 183 1
174 182 184 1
175 185 186 1
176 186 187 1
177 186 189 1
178 187 188 2
179 187 191 1
180 189 190 1
181 191 192 1
182 192 193 1
183 192 195 1
184 193 194 2
185 195 196 1
186 196 197 1
187 197 198 1
188 198 199 1
189 200 201 1
190 201 202 1
191 201 204 1
192 202 203 2
193 204 205 1
194 205 206 1
195 205 207 1
196 208 209 1
197 209 210 1
198 209 212 1
199 210 211 2
200 212 213 1
201 213 214 1
202 213 215 1
@<TRIPOS>SUBSTRUCTURE
1	MET343	1	RESIDUE	1 A	MET
2	LEU346	9	RESIDUE	1 A	LEU
3	THR347	17	RESIDUE	1 A	THR
4	LEU349	24	RESIDUE	1 A	LEU
5	ALA350	32	RESIDUE	1 A	ALA
6	ASP351	37	RESIDUE	1 A	ASP
7	GLU353	45	RESIDUE	1 A	GLU
8	LEU354	54	RESIDUE	1 A	LEU
9	TRP383	62	RESIDUE	1 A	TRP
10	LEU384	76	RESIDUE	1 A	LEU
11	LEU387	84	RESIDUE	1 A	LEU
12	MET388	92	RESIDUE	1 A	MET
13	LEU391	100	RESIDUE	1 A	LEU
14	ARG394	108	RESIDUE	1 A	ARG
15	PHE404	119	RESIDUE	1 A	PHE
16	MET421	130	RESIDUE	1 A	MET
17	ILE424	138	RESIDUE	1 A	ILE
18	LEU428	146	RESIDUE	1 A	LEU
19	LYS520	154	RESIDUE	1 A	LYS
20	GLY521	163	RESIDUE	1 A	GLY
21	HIS524	167	RESIDUE	1 A	HIS
22	LEU525	177	RESIDUE	1 A	LEU
23	CYS530	185	RESIDUE	1 A	CYS
24	LYS531	191	RESIDUE	1 A	LYS
25	LEU536	200	RESIDUE	1 A	LEU
26	LEU539	208	RESIDUE	1 A	LEU
