# created with PyMOL 2.5.0
@<TRIPOS>MOLECULE
1xpc
207 195 25              
SMALL
USER_CHARGES
@<TRIPOS>ATOM
1	   N	35.749	-7.745	31.432	N.3	1	MET343	0.000	
2	  CA	35.719	-7.134	30.085	C.3	1	MET343	0.000	
3	   C	35.183	-8.078	29.021	C.2	1	MET343	0.000	
4	   O	34.602	-7.557	28.048	O.2	1	MET343	0.000	
5	  CB	37.096	-6.611	29.678	C.3	1	MET343	0.000	
6	  CG	37.125	-5.780	28.419	C.3	1	MET343	0.000	
7	  SD	36.080	-4.310	28.436	S.3	1	MET343	0.000	
8	  CE	36.381	-3.695	30.082	C.3	1	MET343	0.000	
9	   N	31.345	-7.786	29.412	N.3	2	LEU346	0.000	
10	  CA	30.913	-6.494	28.860	C.3	2	LEU346	0.000	
11	   C	31.045	-6.462	27.344	C.2	2	LEU346	0.000	
12	   O	30.149	-6.008	26.618	O.2	2	LEU346	0.000	
13	  CB	31.692	-5.325	29.484	C.3	2	LEU346	0.000	
14	  CG	31.532	-5.209	31.019	C.3	2	LEU346	0.000	
15	 CD1	32.305	-4.040	31.610	C.3	2	LEU346	0.000	
16	 CD2	30.054	-5.082	31.382	C.3	2	LEU346	0.000	
17	   N	32.170	-6.955	26.806	N.am	3	THR347	0.000	
18	  CA	32.319	-6.893	25.337	C.3	3	THR347	0.000	
19	   C	31.307	-7.745	24.611	C.2	3	THR347	0.000	
20	   O	30.763	-7.372	23.571	O.2	3	THR347	0.000	
21	  CB	33.752	-7.331	24.985	C.3	3	THR347	0.000	
22	 CG2	34.052	-7.318	23.508	C.3	3	THR347	0.000	
23	 OG1	34.614	-6.355	25.586	O.3	3	THR347	0.000	
24	   N	28.260	-8.585	25.642	N.3	4	LEU349	0.000	
25	  CA	27.013	-7.854	25.775	C.3	4	LEU349	0.000	
26	   C	26.934	-6.757	24.724	C.2	4	LEU349	0.000	
27	   O	25.948	-6.704	23.971	O.2	4	LEU349	0.000	
28	  CB	26.882	-7.215	27.164	C.3	4	LEU349	0.000	
29	  CG	25.531	-6.522	27.369	C.3	4	LEU349	0.000	
30	 CD1	24.388	-7.500	27.158	C.3	4	LEU349	0.000	
31	 CD2	25.432	-5.885	28.744	C.3	4	LEU349	0.000	
32	   N	27.974	-5.923	24.663	N.am	5	ALA350	0.000	
33	  CA	27.999	-4.818	23.691	C.3	5	ALA350	0.000	
34	   C	27.904	-5.276	22.241	C.2	5	ALA350	0.000	
35	   O	27.191	-4.704	21.401	O.2	5	ALA350	0.000	
36	  CB	29.272	-4.007	23.915	C.3	5	ALA350	0.000	
37	   N	28.623	-6.348	21.894	N.am	6	ASP351	0.000	
38	  CA	28.525	-6.888	20.528	C.3	6	ASP351	0.000	
39	   C	27.104	-7.331	20.195	C.2	6	ASP351	0.000	
40	   O	26.510	-7.172	19.131	O.2	6	ASP351	0.000	
41	  CB	29.516	-8.032	20.417	C.3	6	ASP351	0.000	
42	  CG	30.972	-7.623	20.328	C.2	6	ASP351	0.000	
43	 OD1	31.250	-6.438	20.051	O.co2	6	ASP351	0.000	
44	 OD2	31.823	-8.522	20.542	O.co2	6	ASP351	0.000	
45	   N	24.316	-6.180	21.537	N.3	7	GLU353	0.000	
46	  CA	23.424	-5.015	21.487	C.3	7	GLU353	0.000	
47	   C	23.512	-4.310	20.151	C.2	7	GLU353	0.000	
48	   O	22.544	-3.717	19.649	O.2	7	GLU353	0.000	
49	  CB	23.796	-4.056	22.610	C.3	7	GLU353	0.000	
50	  CG	23.090	-4.447	23.934	C.3	7	GLU353	0.000	
51	  CD	23.293	-3.285	24.882	C.2	7	GLU353	0.000	
52	 OE1	22.480	-2.340	24.902	O.co2	7	GLU353	0.000	
53	 OE2	24.307	-3.294	25.592	O.co2	7	GLU353	0.000	
54	   N	24.707	-4.379	19.583	N.am	8	LEU354	0.000	
55	  CA	24.956	-3.677	18.322	C.3	8	LEU354	0.000	
56	   C	24.039	-4.171	17.224	C.2	8	LEU354	0.000	
57	   O	23.554	-3.444	16.354	O.2	8	LEU354	0.000	
58	  CB	26.447	-3.834	17.917	C.3	8	LEU354	0.000	
59	  CG	26.792	-3.078	16.634	C.3	8	LEU354	0.000	
60	 CD1	26.746	-1.570	16.833	C.3	8	LEU354	0.000	
61	 CD2	28.163	-3.490	16.093	C.3	8	LEU354	0.000	
62	   N	27.824	4.715	17.703	N.3	9	TRP383	0.000	
63	  CA	27.400	3.480	18.394	C.3	9	TRP383	0.000	
64	   C	27.758	3.486	19.863	C.2	9	TRP383	0.000	
65	   O	26.938	2.997	20.647	O.2	9	TRP383	0.000	
66	  CB	27.980	2.260	17.665	C.3	9	TRP383	0.000	
67	  CG	29.458	2.135	17.839	C.2	9	TRP383	0.000	
68	 CD1	30.409	2.655	17.035	C.2	9	TRP383	0.000	
69	 CD2	30.160	1.465	18.865	C.2	9	TRP383	0.000	
70	 CE2	31.536	1.617	18.618	C.2	9	TRP383	0.000	
71	 CE3	29.698	0.741	19.974	C.2	9	TRP383	0.000	
72	 NE1	31.673	2.358	17.479	N.pl3	9	TRP383	0.000	
73	 CZ2	32.508	1.069	19.444	C.2	9	TRP383	0.000	
74	 CZ3	30.677	0.203	20.794	C.2	9	TRP383	0.000	
75	 CH2	32.042	0.372	20.525	C.2	9	TRP383	0.000	
76	   N	28.929	4.019	20.256	N.am	10	LEU384	0.000	
77	  CA	29.212	3.932	21.700	C.3	10	LEU384	0.000	
78	   C	28.393	4.932	22.515	C.2	10	LEU384	0.000	
79	   O	27.946	4.624	23.643	O.2	10	LEU384	0.000	
80	  CB	30.719	4.024	21.942	C.3	10	LEU384	0.000	
81	  CG	31.161	3.833	23.402	C.3	10	LEU384	0.000	
82	 CD1	30.746	2.474	23.940	C.3	10	LEU384	0.000	
83	 CD2	32.672	4.028	23.541	C.3	10	LEU384	0.000	
84	   N	25.053	3.061	22.931	N.3	11	LEU387	0.000	
85	  CA	25.108	2.097	24.048	C.3	11	LEU387	0.000	
86	   C	25.120	2.805	25.395	C.2	11	LEU387	0.000	
87	   O	24.414	2.426	26.332	O.2	11	LEU387	0.000	
88	  CB	26.393	1.275	23.959	C.3	11	LEU387	0.000	
89	  CG	26.435	0.256	22.809	C.3	11	LEU387	0.000	
90	 CD1	27.743	-0.522	22.856	C.3	11	LEU387	0.000	
91	 CD2	25.213	-0.641	22.826	C.3	11	LEU387	0.000	
92	   N	25.962	3.831	25.542	N.am	12	MET388	0.000	
93	  CA	26.120	4.437	26.867	C.3	12	MET388	0.000	
94	   C	24.848	5.148	27.308	C.2	12	MET388	0.000	
95	   O	24.494	4.988	28.480	O.2	12	MET388	0.000	
96	  CB	27.296	5.409	26.850	C.3	12	MET388	0.000	
97	  CG	28.647	4.694	26.809	C.3	12	MET388	0.000	
98	  SD	29.955	5.943	26.742	S.3	12	MET388	0.000	
99	  CE	31.392	4.960	27.238	C.3	12	MET388	0.000	
100	   N	22.666	2.589	28.608	N.3	13	LEU391	0.000	
101	  CA	23.086	2.078	29.916	C.3	13	LEU391	0.000	
102	   C	22.712	2.998	31.066	C.2	13	LEU391	0.000	
103	   O	22.268	2.615	32.147	O.2	13	LEU391	0.000	
104	  CB	24.610	1.922	29.922	C.3	13	LEU391	0.000	
105	  CG	25.235	1.505	31.255	C.3	13	LEU391	0.000	
106	 CD1	24.711	0.166	31.720	C.3	13	LEU391	0.000	
107	 CD2	26.759	1.484	31.094	C.3	13	LEU391	0.000	
108	   N	18.898	2.779	31.740	N.3	14	ARG394	0.000	
109	  CA	18.360	1.674	32.544	C.3	14	ARG394	0.000	
110	   C	19.022	1.617	33.927	C.2	14	ARG394	0.000	
111	   O	18.574	0.854	34.803	O.2	14	ARG394	0.000	
112	  CB	18.458	0.377	31.770	C.3	14	ARG394	0.000	
113	  CG	19.764	-0.030	31.180	C.3	14	ARG394	0.000	
114	  CD	19.738	-1.435	30.562	C.3	14	ARG394	0.000	
115	  NE	21.104	-1.777	30.163	N.pl3	14	ARG394	0.000	
116	  CZ	21.718	-1.413	29.051	C.cat	14	ARG394	0.000	
117	 NH1	21.150	-0.667	28.103	N.pl3	14	ARG394	0.000	
118	 NH2	22.966	-1.814	28.860	N.pl3	14	ARG394	0.000	
119	   N	24.191	-2.992	33.564	N.3	15	PHE404	0.000	
120	  CA	24.613	-3.424	32.228	C.3	15	PHE404	0.000	
121	   C	23.584	-4.399	31.660	C.2	15	PHE404	0.000	
122	   O	23.231	-4.326	30.493	O.2	15	PHE404	0.000	
123	  CB	26.004	-4.056	32.250	C.3	15	PHE404	0.000	
124	  CG	27.100	-3.039	32.505	C.2	15	PHE404	0.000	
125	 CD1	27.661	-2.342	31.454	C.2	15	PHE404	0.000	
126	 CD2	27.563	-2.766	33.769	C.2	15	PHE404	0.000	
127	 CE1	28.640	-1.392	31.673	C.2	15	PHE404	0.000	
128	 CE2	28.548	-1.836	34.007	C.2	15	PHE404	0.000	
129	  CZ	29.100	-1.137	32.951	C.2	15	PHE404	0.000	
130	   N	39.162	1.445	34.101	N.3	16	MET421	0.000	
131	  CA	37.721	1.420	33.846	C.3	16	MET421	0.000	
132	   C	36.948	2.206	34.891	C.2	16	MET421	0.000	
133	   O	35.886	2.763	34.606	O.2	16	MET421	0.000	
134	  CB	37.216	-0.026	33.736	C.3	16	MET421	0.000	
135	  CG	35.836	-0.104	33.098	C.3	16	MET421	0.000	
136	  SD	35.366	-1.743	32.535	S.3	16	MET421	0.000	
137	  CE	35.317	-2.680	34.060	C.3	16	MET421	0.000	
138	   N	35.724	5.576	33.705	N.3	17	ILE424	0.000	
139	  CA	34.536	5.555	32.849	C.3	17	ILE424	0.000	
140	   C	33.267	5.265	33.644	C.2	17	ILE424	0.000	
141	   O	32.226	5.910	33.433	O.2	17	ILE424	0.000	
142	  CB	34.697	4.508	31.726	C.3	17	ILE424	0.000	
143	 CG1	36.034	4.525	30.986	C.3	17	ILE424	0.000	
144	 CG2	33.530	4.602	30.753	C.3	17	ILE424	0.000	
145	 CD1	36.357	5.704	30.107	C.3	17	ILE424	0.000	
146	   N	29.742	7.462	33.894	N.3	18	LEU428	0.000	
147	  CA	28.401	6.920	33.594	C.3	18	LEU428	0.000	
148	   C	27.470	7.093	34.786	C.2	18	LEU428	0.000	
149	   O	26.301	7.475	34.695	O.2	18	LEU428	0.000	
150	  CB	28.519	5.451	33.187	C.3	18	LEU428	0.000	
151	  CG	29.235	5.202	31.854	C.3	18	LEU428	0.000	
152	 CD1	29.770	3.775	31.806	C.3	18	LEU428	0.000	
153	 CD2	28.313	5.517	30.676	C.3	18	LEU428	0.000	
154	   N	36.264	9.147	25.539	N.3	19	LYS520	0.000	
155	  CA	37.150	8.595	26.576	C.3	19	LYS520	0.000	
156	   C	37.062	7.080	26.540	C.2	19	LYS520	0.000	
157	   O	38.053	6.353	26.704	O.2	19	LYS520	0.000	
158	  CB	36.788	9.181	27.937	C.3	19	LYS520	0.000	
159	  CG	36.984	10.687	28.089	C.3	19	LYS520	0.000	
160	  CD	38.390	11.094	27.676	C.3	19	LYS520	0.000	
161	  CE	39.446	10.627	28.669	C.3	19	LYS520	0.000	
162	  NZ	40.521	11.631	28.932	N.4	19	LYS520	0.000	
163	   N	35.852	6.549	26.318	N.am	20	GLY521	0.000	
164	  CA	35.744	5.084	26.310	C.3	20	GLY521	0.000	
165	   C	36.388	4.482	25.068	C.2	20	GLY521	0.000	
166	   O	36.952	3.390	25.082	O.2	20	GLY521	0.000	
167	   N	39.971	4.322	25.939	N.3	21	HIS524	0.000	
168	  CA	40.243	3.256	26.895	C.3	21	HIS524	0.000	
169	   C	40.130	1.906	26.210	C.2	21	HIS524	0.000	
170	   O	40.945	0.995	26.376	O.2	21	HIS524	0.000	
171	  CB	39.272	3.379	28.076	C.3	21	HIS524	0.000	
172	  CG	39.462	2.295	29.101	C.2	21	HIS524	0.000	
173	 CD2	40.483	2.012	29.930	C.2	21	HIS524	0.000	
174	 ND1	38.535	1.321	29.359	N.2	21	HIS524	0.000	
175	 CE1	38.941	0.490	30.290	C.2	21	HIS524	0.000	
176	 NE2	40.146	0.899	30.664	N.pl3	21	HIS524	0.000	
177	   N	39.083	1.754	25.392	N.am	22	LEU525	0.000	
178	  CA	38.914	0.472	24.716	C.3	22	LEU525	0.000	
179	   C	40.110	0.176	23.826	C.2	22	LEU525	0.000	
180	   O	40.557	-0.972	23.843	O.2	22	LEU525	0.000	
181	  CB	37.667	0.402	23.862	C.3	22	LEU525	0.000	
182	  CG	36.341	0.321	24.616	C.3	22	LEU525	0.000	
183	 CD1	35.191	0.407	23.624	C.3	22	LEU525	0.000	
184	 CD2	36.263	-0.948	25.453	C.3	22	LEU525	0.000	
185	   N	39.298	-6.332	23.405	N.3	23	CYS530	0.000	
186	  CA	37.948	-6.105	22.959	C.3	23	CYS530	0.000	
187	   C	37.599	-6.624	21.565	C.2	23	CYS530	0.000	
188	   O	36.880	-7.631	21.495	O.2	23	CYS530	0.000	
189	  CB	37.622	-4.595	22.995	C.3	23	CYS530	0.000	
190	  SG	36.031	-4.377	23.837	S.3	23	CYS530	0.000	
191	   N	38.062	-5.963	20.517	N.am	24	LYS531	0.000	
192	  CA	37.896	-6.367	19.131	C.3	24	LYS531	0.000	
193	   C	38.183	-5.218	18.161	C.2	24	LYS531	0.000	
194	   O	37.874	-4.062	18.430	O.2	24	LYS531	0.000	
195	  CB	36.493	-6.904	18.826	C.3	24	LYS531	0.000	
196	  CG	36.452	-7.905	17.676	C.3	24	LYS531	0.000	
197	  CD	35.349	-7.562	16.689	C.3	24	LYS531	0.000	
198	  CE	35.118	-8.692	15.694	C.3	24	LYS531	0.000	
199	  NZ	33.691	-9.140	15.661	N.4	24	LYS531	0.000	
200	   N	35.229	-1.800	11.811	N.3	25	LEU536	0.000	
201	  CA	33.839	-1.596	12.157	C.3	25	LEU536	0.000	
202	   C	32.992	-1.270	10.929	C.2	25	LEU536	0.000	
203	   O	31.892	-1.808	10.816	O.2	25	LEU536	0.000	
204	  CB	33.672	-0.489	13.216	C.3	25	LEU536	0.000	
205	  CG	32.251	-0.468	13.792	C.3	25	LEU536	0.000	
206	 CD1	31.757	-1.905	13.920	C.3	25	LEU536	0.000	
207	 CD2	32.173	0.243	15.131	C.3	25	LEU536	0.000	
@<TRIPOS>BOND
1 1 2 1
2 2 3 1
3 2 5 1
4 3 4 2
5 5 6 1
6 6 7 1
7 7 8 1
8 9 10 1
9 10 11 1
10 10 13 1
11 11 12 2
12 11 17 1
13 13 14 1
14 14 15 1
15 14 16 1
16 17 18 1
17 18 19 1
18 18 21 1
19 19 20 2
20 21 22 1
21 21 23 1
22 24 25 1
23 25 26 1
24 25 28 1
25 26 27 2
26 26 32 1
27 28 29 1
28 29 30 1
29 29 31 1
30 32 33 1
31 33 34 1
32 33 36 1
33 34 35 2
34 34 37 1
35 37 38 1
36 38 39 1
37 38 41 1
38 39 40 2
39 41 42 1
40 42 43 2
41 42 44 1
42 45 46 1
43 46 47 1
44 46 49 1
45 47 48 2
46 47 54 1
47 49 50 1
48 50 51 1
49 51 52 2
50 51 53 1
51 54 55 1
52 55 56 1
53 55 58 1
54 56 57 2
55 58 59 1
56 59 60 1
57 59 61 1
58 62 63 1
59 63 64 1
60 63 66 1
61 64 65 2
62 64 76 1
63 66 67 1
64 67 68 2
65 67 69 1
66 68 72 1
67 69 70 2
68 69 71 1
69 70 73 1
70 71 74 2
71 70 72 1
72 73 75 2
73 74 75 1
74 76 77 1
75 77 78 1
76 77 80 1
77 78 79 2
78 80 81 1
79 81 82 1
80 81 83 1
81 84 85 1
82 85 86 1
83 85 88 1
84 86 87 2
85 86 92 1
86 88 89 1
87 89 90 1
88 89 91 1
89 92 93 1
90 93 94 1
91 93 96 1
92 94 95 2
93 96 97 1
94 97 98 1
95 98 99 1
96 100 101 1
97 101 102 1
98 101 104 1
99 102 103 2
100 104 105 1
101 105 106 1
102 105 107 1
103 108 109 1
104 109 110 1
105 109 112 1
106 110 111 2
107 112 113 1
108 113 114 1
109 114 115 1
110 115 116 1
111 116 117 2
112 116 118 1
113 119 120 1
114 120 121 1
115 120 123 1
116 121 122 2
117 123 124 1
118 124 125 2
119 124 126 1
120 125 127 1
121 126 128 2
122 127 129 2
123 128 129 1
124 130 131 1
125 131 132 1
126 131 134 1
127 132 133 2
128 134 135 1
129 135 136 1
130 136 137 1
131 138 139 1
132 139 140 1
133 139 142 1
134 140 141 2
135 142 143 1
136 142 144 1
137 143 145 1
138 146 147 1
139 147 148 1
140 147 150 1
141 148 149 2
142 150 151 1
143 151 152 1
144 151 153 1
145 154 155 1
146 155 156 1
147 155 158 1
148 156 157 2
149 156 163 1
150 158 159 1
151 159 160 1
152 160 161 1
153 161 162 1
154 163 164 1
155 164 165 1
156 165 166 2
157 167 168 1
158 168 169 1
159 168 171 1
160 169 170 2
161 169 177 1
162 171 172 1
163 172 173 2
164 172 174 1
165 173 176 1
166 174 175 2
167 175 176 1
168 177 178 1
169 178 179 1
170 178 181 1
171 179 180 2
172 181 182 1
173 182 183 1
174 182 184 1
175 185 186 1
176 186 187 1
177 186 189 1
178 187 188 2
179 187 191 1
180 189 190 1
181 191 192 1
182 192 193 1
183 192 195 1
184 193 194 2
185 195 196 1
186 196 197 1
187 197 198 1
188 198 199 1
189 200 201 1
190 201 202 1
191 201 204 1
192 202 203 2
193 204 205 1
194 205 206 1
195 205 207 1
@<TRIPOS>SUBSTRUCTURE
1	MET343	1	RESIDUE	1 A	MET
2	LEU346	9	RESIDUE	1 A	LEU
3	THR347	17	RESIDUE	1 A	THR
4	LEU349	24	RESIDUE	1 A	LEU
5	ALA350	32	RESIDUE	1 A	ALA
6	ASP351	37	RESIDUE	1 A	ASP
7	GLU353	45	RESIDUE	1 A	GLU
8	LEU354	54	RESIDUE	1 A	LEU
9	TRP383	62	RESIDUE	1 A	TRP
10	LEU384	76	RESIDUE	1 A	LEU
11	LEU387	84	RESIDUE	1 A	LEU
12	MET388	92	RESIDUE	1 A	MET
13	LEU391	100	RESIDUE	1 A	LEU
14	ARG394	108	RESIDUE	1 A	ARG
15	PHE404	119	RESIDUE	1 A	PHE
16	MET421	130	RESIDUE	1 A	MET
17	ILE424	138	RESIDUE	1 A	ILE
18	LEU428	146	RESIDUE	1 A	LEU
19	LYS520	154	RESIDUE	1 A	LYS
20	GLY521	163	RESIDUE	1 A	GLY
21	HIS524	167	RESIDUE	1 A	HIS
22	LEU525	177	RESIDUE	1 A	LEU
23	CYS530	185	RESIDUE	1 A	CYS
24	LYS531	191	RESIDUE	1 A	LYS
25	LEU536	200	RESIDUE	1 A	LEU
