# created with PyMOL 2.5.0
@<TRIPOS>MOLECULE
1yy4
153 140 19              
SMALL
USER_CHARGES
@<TRIPOS>ATOM
1	   N	37.372	39.264	42.387	N.3	1	MET295	0.000	
2	  CA	37.151	37.980	41.742	C.3	1	MET295	0.000	
3	   C	36.997	36.825	42.721	C.2	1	MET295	0.000	
4	   O	36.247	35.884	42.457	O.2	1	MET295	0.000	
5	  CB	38.284	37.675	40.766	C.3	1	MET295	0.000	
6	  CG	38.206	38.480	39.486	C.3	1	MET295	0.000	
7	  SD	36.674	38.171	38.587	S.3	1	MET295	0.000	
8	  CE	36.990	36.510	37.977	C.3	1	MET295	0.000	
9	   N	33.442	37.142	44.186	N.3	2	LEU298	0.000	
10	  CA	32.433	36.720	43.226	C.3	2	LEU298	0.000	
11	   C	32.400	35.200	43.052	C.2	2	LEU298	0.000	
12	   O	31.326	34.608	42.908	O.2	2	LEU298	0.000	
13	  CB	32.676	37.398	41.876	C.3	2	LEU298	0.000	
14	  CG	32.463	38.915	41.869	C.3	2	LEU298	0.000	
15	 CD1	32.787	39.468	40.498	C.3	2	LEU298	0.000	
16	 CD2	31.027	39.235	42.253	C.3	2	LEU298	0.000	
17	   N	33.571	34.568	43.078	N.am	3	THR299	0.000	
18	  CA	33.648	33.119	42.916	C.3	3	THR299	0.000	
19	   C	33.306	32.395	44.216	C.2	3	THR299	0.000	
20	   O	32.748	31.300	44.198	O.2	3	THR299	0.000	
21	  CB	35.051	32.679	42.434	C.3	3	THR299	0.000	
22	 CG2	35.431	33.432	41.173	C.3	3	THR299	0.000	
23	 OG1	36.022	32.955	43.447	O.3	3	THR299	0.000	
24	   N	31.228	33.571	46.391	N.3	4	LEU301	0.000	
25	  CA	29.794	33.799	46.538	C.3	4	LEU301	0.000	
26	   C	29.011	32.867	45.627	C.2	4	LEU301	0.000	
27	   O	28.028	32.251	46.048	O.2	4	LEU301	0.000	
28	  CB	29.452	35.252	46.190	C.3	4	LEU301	0.000	
29	  CG	27.970	35.609	46.014	C.3	4	LEU301	0.000	
30	 CD1	27.217	35.389	47.320	C.3	4	LEU301	0.000	
31	 CD2	27.841	37.052	45.556	C.3	4	LEU301	0.000	
32	   N	29.451	32.779	44.375	N.am	5	ALA302	0.000	
33	  CA	28.800	31.925	43.386	C.3	5	ALA302	0.000	
34	   C	28.814	30.478	43.855	C.2	5	ALA302	0.000	
35	   O	27.825	29.757	43.707	O.2	5	ALA302	0.000	
36	  CB	29.507	32.049	42.039	C.3	5	ALA302	0.000	
37	   N	26.226	30.033	46.682	N.3	6	GLU305	0.000	
38	  CA	24.910	30.083	46.059	C.3	6	GLU305	0.000	
39	   C	24.602	28.827	45.263	C.2	6	GLU305	0.000	
40	   O	23.451	28.384	45.202	O.2	6	GLU305	0.000	
41	  CB	24.813	31.297	45.153	C.3	6	GLU305	0.000	
42	  CG	24.890	32.594	45.909	C.3	6	GLU305	0.000	
43	  CD	24.480	33.771	45.065	C.2	6	GLU305	0.000	
44	 OE1	23.310	33.823	44.631	O.co2	6	GLU305	0.000	
45	 OE2	25.333	34.647	44.841	O.co2	6	GLU305	0.000	
46	   N	24.366	29.631	35.925	N.3	7	MET336	0.000	
47	  CA	24.816	31.021	35.813	C.3	7	MET336	0.000	
48	   C	23.649	31.979	35.599	C.2	7	MET336	0.000	
49	   O	23.611	33.060	36.182	O.2	7	MET336	0.000	
50	  CB	25.827	31.184	34.676	C.3	7	MET336	0.000	
51	  CG	26.369	32.608	34.541	C.3	7	MET336	0.000	
52	  SD	27.161	33.242	36.049	S.3	7	MET336	0.000	
53	  CE	28.825	32.525	35.867	C.3	7	MET336	0.000	
54	   N	21.750	32.357	38.620	N.3	8	LEU339	0.000	
55	  CA	22.546	33.204	39.501	C.3	8	LEU339	0.000	
56	   C	22.295	34.673	39.185	C.2	8	LEU339	0.000	
57	   O	21.989	35.463	40.079	O.2	8	LEU339	0.000	
58	  CB	24.038	32.902	39.354	C.3	8	LEU339	0.000	
59	  CG	24.581	31.761	40.212	C.3	8	LEU339	0.000	
60	 CD1	26.063	31.594	39.956	C.3	8	LEU339	0.000	
61	 CD2	24.326	32.044	41.680	C.3	8	LEU339	0.000	
62	   N	22.422	35.037	37.912	N.am	9	MET340	0.000	
63	  CA	22.216	36.419	37.512	C.3	9	MET340	0.000	
64	   C	20.769	36.869	37.673	C.2	9	MET340	0.000	
65	   O	20.515	38.030	37.975	O.2	9	MET340	0.000	
66	  CB	22.707	36.629	36.079	C.3	9	MET340	0.000	
67	  CG	24.232	36.601	35.987	C.3	9	MET340	0.000	
68	  SD	24.889	36.482	34.300	S.3	9	MET340	0.000	
69	  CE	23.995	35.052	33.775	C.3	9	MET340	0.000	
70	   N	20.522	37.832	41.115	N.3	10	LEU343	0.000	
71	  CA	21.252	39.078	41.287	C.3	10	LEU343	0.000	
72	   C	20.387	40.276	40.889	C.2	10	LEU343	0.000	
73	   O	20.368	41.295	41.577	O.2	10	LEU343	0.000	
74	  CB	22.512	39.068	40.427	C.3	10	LEU343	0.000	
75	  CG	23.316	40.374	40.423	C.3	10	LEU343	0.000	
76	 CD1	24.059	40.512	41.742	C.3	10	LEU343	0.000	
77	 CD2	24.298	40.377	39.253	C.3	10	LEU343	0.000	
78	   N	17.575	41.185	43.402	N.3	11	ARG346	0.000	
79	  CA	18.127	41.824	44.583	C.3	11	ARG346	0.000	
80	   C	18.622	43.223	44.279	C.2	11	ARG346	0.000	
81	   O	18.755	44.041	45.183	O.2	11	ARG346	0.000	
82	  CB	19.284	41.000	45.146	C.3	11	ARG346	0.000	
83	  CG	18.869	39.661	45.714	C.3	11	ARG346	0.000	
84	  CD	20.006	39.031	46.487	C.3	11	ARG346	0.000	
85	  NE	21.177	38.753	45.654	N.pl3	11	ARG346	0.000	
86	  CZ	21.251	37.776	44.754	C.cat	11	ARG346	0.000	
87	 NH1	20.215	36.964	44.553	N.pl3	11	ARG346	0.000	
88	 NH2	22.372	37.604	44.063	N.pl3	11	ARG346	0.000	
89	   N	25.226	41.734	44.724	N.3	12	PHE356	0.000	
90	  CA	25.590	40.325	44.662	C.3	12	PHE356	0.000	
91	   C	25.293	39.694	46.015	C.2	12	PHE356	0.000	
92	   O	24.863	38.546	46.109	O.2	12	PHE356	0.000	
93	  CB	27.071	40.164	44.311	C.3	12	PHE356	0.000	
94	  CG	27.407	40.587	42.908	C.2	12	PHE356	0.000	
95	 CD1	27.596	41.934	42.598	C.2	12	PHE356	0.000	
96	 CD2	27.502	39.640	41.889	C.2	12	PHE356	0.000	
97	 CE1	27.876	42.333	41.297	C.2	12	PHE356	0.000	
98	 CE2	27.779	40.024	40.584	C.2	12	PHE356	0.000	
99	  CZ	27.967	41.379	40.284	C.2	12	PHE356	0.000	
100	   N	34.887	42.655	32.770	N.3	13	ILE373	0.000	
101	  CA	33.829	42.677	33.758	C.3	13	ILE373	0.000	
102	   C	32.884	43.858	33.550	C.2	13	ILE373	0.000	
103	   O	31.664	43.733	33.639	O.2	13	ILE373	0.000	
104	  CB	34.437	42.749	35.176	C.3	13	ILE373	0.000	
105	 CG1	34.797	41.348	35.651	C.3	13	ILE373	0.000	
106	 CG2	33.460	43.374	36.146	C.3	13	ILE373	0.000	
107	 CD1	33.581	40.469	35.844	C.3	13	ILE373	0.000	
108	   N	30.187	43.098	31.261	N.3	14	ILE376	0.000	
109	  CA	29.199	42.241	31.885	C.3	14	ILE376	0.000	
110	   C	28.322	43.043	32.844	C.2	14	ILE376	0.000	
111	   O	27.094	42.936	32.843	O.2	14	ILE376	0.000	
112	  CB	29.880	41.108	32.659	C.3	14	ILE376	0.000	
113	 CG1	30.771	40.302	31.714	C.3	14	ILE376	0.000	
114	 CG2	28.840	40.178	33.260	C.3	14	ILE376	0.000	
115	 CD1	31.137	38.954	32.264	C.3	14	ILE376	0.000	
116	   N	24.215	43.376	33.022	N.3	15	LEU380	0.000	
117	  CA	23.457	43.068	34.213	C.3	15	LEU380	0.000	
118	   C	22.681	44.291	34.681	C.2	15	LEU380	0.000	
119	   O	21.515	44.184	35.069	O.2	15	LEU380	0.000	
120	  CB	24.411	42.596	35.310	C.3	15	LEU380	0.000	
121	  CG	25.187	41.317	34.990	C.3	15	LEU380	0.000	
122	 CD1	26.217	41.059	36.084	C.3	15	LEU380	0.000	
123	 CD2	24.218	40.147	34.853	C.3	15	LEU380	0.000	
124	   N	29.210	35.787	30.904	N.3	16	GLY472	0.000	
125	  CA	29.697	35.581	32.256	C.3	16	GLY472	0.000	
126	   C	30.565	34.340	32.363	C.2	16	GLY472	0.000	
127	   O	31.637	34.377	32.965	O.2	16	GLY472	0.000	
128	   N	33.973	34.725	30.582	N.3	17	HIS475	0.000	
129	  CA	34.896	35.494	31.400	C.3	17	HIS475	0.000	
130	   C	35.426	34.628	32.544	C.2	17	HIS475	0.000	
131	   O	36.628	34.587	32.798	O.2	17	HIS475	0.000	
132	  CB	34.181	36.729	31.950	C.3	17	HIS475	0.000	
133	  CG	35.096	37.738	32.570	C.2	17	HIS475	0.000	
134	 CD2	35.363	39.022	32.235	C.2	17	HIS475	0.000	
135	 ND1	35.853	37.472	33.691	N.2	17	HIS475	0.000	
136	 CE1	36.544	38.547	34.022	C.2	17	HIS475	0.000	
137	 NE2	36.265	39.503	33.154	N.pl3	17	HIS475	0.000	
138	   N	34.522	33.932	33.226	N.am	18	LEU476	0.000	
139	  CA	34.893	33.066	34.339	C.3	18	LEU476	0.000	
140	   C	35.810	31.944	33.870	C.2	18	LEU476	0.000	
141	   O	36.861	31.690	34.464	O.2	18	LEU476	0.000	
142	  CB	33.638	32.472	34.980	C.3	18	LEU476	0.000	
143	  CG	33.842	31.406	36.060	C.3	18	LEU476	0.000	
144	 CD1	34.636	31.988	37.217	C.3	18	LEU476	0.000	
145	 CD2	32.484	30.888	36.539	C.3	18	LEU476	0.000	
146	   N	39.104	33.132	33.385	N.3	19	MET479	0.000	
147	  CA	39.756	33.355	34.665	C.3	19	MET479	0.000	
148	   C	40.218	32.034	35.261	C.2	19	MET479	0.000	
149	   O	41.265	31.974	35.903	O.2	19	MET479	0.000	
150	  CB	38.804	34.052	35.635	C.3	19	MET479	0.000	
151	  CG	38.509	35.499	35.277	C.3	19	MET479	0.000	
152	  SD	39.996	36.536	35.229	S.3	19	MET479	0.000	
153	  CE	40.328	36.576	33.461	C.3	19	MET479	0.000	
@<TRIPOS>BOND
1 1 2 1
2 2 3 1
3 2 5 1
4 3 4 2
5 5 6 1
6 6 7 1
7 7 8 1
8 9 10 1
9 10 11 1
10 10 13 1
11 11 12 2
12 11 17 1
13 13 14 1
14 14 15 1
15 14 16 1
16 17 18 1
17 18 19 1
18 18 21 1
19 19 20 2
20 21 22 1
21 21 23 1
22 24 25 1
23 25 26 1
24 25 28 1
25 26 27 2
26 26 32 1
27 28 29 1
28 29 30 1
29 29 31 1
30 32 33 1
31 33 34 1
32 33 36 1
33 34 35 2
34 37 38 1
35 38 39 1
36 38 41 1
37 39 40 2
38 41 42 1
39 42 43 1
40 43 44 2
41 43 45 1
42 46 47 1
43 47 48 1
44 47 50 1
45 48 49 2
46 50 51 1
47 51 52 1
48 52 53 1
49 54 55 1
50 55 56 1
51 55 58 1
52 56 57 2
53 56 62 1
54 58 59 1
55 59 60 1
56 59 61 1
57 62 63 1
58 63 64 1
59 63 66 1
60 64 65 2
61 66 67 1
62 67 68 1
63 68 69 1
64 70 71 1
65 71 72 1
66 71 74 1
67 72 73 2
68 74 75 1
69 75 76 1
70 75 77 1
71 78 79 1
72 79 80 1
73 79 82 1
74 80 81 2
75 82 83 1
76 83 84 1
77 84 85 1
78 85 86 1
79 86 87 2
80 86 88 1
81 89 90 1
82 90 91 1
83 90 93 1
84 91 92 2
85 93 94 1
86 94 95 2
87 94 96 1
88 95 97 1
89 96 98 2
90 97 99 2
91 98 99 1
92 100 101 1
93 101 102 1
94 101 104 1
95 102 103 2
96 104 105 1
97 104 106 1
98 105 107 1
99 108 109 1
100 109 110 1
101 109 112 1
102 110 111 2
103 112 113 1
104 112 114 1
105 113 115 1
106 116 117 1
107 117 118 1
108 117 120 1
109 118 119 2
110 120 121 1
111 121 122 1
112 121 123 1
113 124 125 1
114 125 126 1
115 126 127 2
116 128 129 1
117 129 130 1
118 129 132 1
119 130 131 2
120 130 138 1
121 132 133 1
122 133 134 2
123 133 135 1
124 134 137 1
125 135 136 2
126 136 137 1
127 138 139 1
128 139 140 1
129 139 142 1
130 140 141 2
131 142 143 1
132 143 144 1
133 143 145 1
134 146 147 1
135 147 148 1
136 147 150 1
137 148 149 2
138 150 151 1
139 151 152 1
140 152 153 1
@<TRIPOS>SUBSTRUCTURE
1	MET295	1	RESIDUE	1 A	MET
2	LEU298	9	RESIDUE	1 A	LEU
3	THR299	17	RESIDUE	1 A	THR
4	LEU301	24	RESIDUE	1 A	LEU
5	ALA302	32	RESIDUE	1 A	ALA
6	GLU305	37	RESIDUE	1 A	GLU
7	MET336	46	RESIDUE	1 A	MET
8	LEU339	54	RESIDUE	1 A	LEU
9	MET340	62	RESIDUE	1 A	MET
10	LEU343	70	RESIDUE	1 A	LEU
11	ARG346	78	RESIDUE	1 A	ARG
12	PHE356	89	RESIDUE	1 A	PHE
13	ILE373	100	RESIDUE	1 A	ILE
14	ILE376	108	RESIDUE	1 A	ILE
15	LEU380	116	RESIDUE	1 A	LEU
16	GLY472	124	RESIDUE	1 A	GLY
17	HIS475	128	RESIDUE	1 A	HIS
18	LEU476	138	RESIDUE	1 A	LEU
19	MET479	146	RESIDUE	1 A	MET
