# created with PyMOL 2.5.4
@<TRIPOS>MOLECULE
3CJG_A_aligned_pocket
239 201 54              
SMALL
USER_CHARGES
@<TRIPOS>ATOM
1	  CB	14.897	0.821	-10.386	C.3	1	CYS815	0.000	
2	  SG	14.128	-0.820	-10.468	S.3	1	CYS815	0.000	
3	   N	4.726	23.364	2.990	N.3	2	GLY835	0.000	
4	  CA	3.820	23.548	4.120	C.3	2	GLY835	0.000	
5	   C	4.176	22.669	5.311	C.3	2	GLY835	0.000	
6	   N	3.164	22.085	5.951	N.3	3	LYS836	0.000	
7	  CA	3.384	21.216	7.105	C.3	3	LYS836	0.000	
8	  CB	2.097	21.055	7.929	C.3	3	LYS836	0.000	
9	  CG	1.608	22.308	8.635	C.3	3	LYS836	0.000	
10	  CE	2.169	24.058	10.337	C.3	3	LYS836	0.000	
11	  CA	3.082	14.721	6.882	C.3	4	LEU838	0.000	
12	   C	3.754	13.491	7.491	C.2	4	LEU838	0.000	
13	   O	3.218	12.389	7.416	O.2	4	LEU838	0.000	
14	  CB	2.566	14.385	5.477	C.3	4	LEU838	0.000	
15	  CG	1.662	15.430	4.839	C.3	4	LEU838	0.000	
16	 CD1	1.317	15.017	3.434	C.3	4	LEU838	0.000	
17	 CD2	0.401	15.667	5.670	C.3	4	LEU838	0.000	
18	   N	4.950	13.679	8.052	N.am	5	GLY839	0.000	
19	  CA	5.506	12.736	9.008	C.3	5	GLY839	0.000	
20	   C	6.842	12.100	8.670	C.2	5	GLY839	0.000	
21	   O	7.301	12.131	7.511	O.2	5	GLY839	0.000	
22	  CB	8.297	9.429	8.742	C.3	6	ARG840	0.000	
23	  CG	8.723	8.097	9.333	C.3	6	ARG840	0.000	
24	  CD	8.471	6.908	8.411	C.3	6	ARG840	0.000	
25	  NE	8.982	5.670	9.018	N.pl3	6	ARG840	0.000	
26	  CZ	8.960	4.469	8.439	C.cat	6	ARG840	0.000	
27	 NH1	8.446	4.306	7.219	N.pl3	6	ARG840	0.000	
28	 NH2	9.456	3.421	9.084	N.pl3	6	ARG840	0.000	
29	   N	13.899	9.898	5.014	N.3	7	GLY844	0.000	
30	  CA	13.140	10.730	4.075	C.3	7	GLY844	0.000	
31	   C	11.960	11.419	4.742	C.2	7	GLY844	0.000	
32	   O	11.313	10.835	5.618	O.2	7	GLY844	0.000	
33	  CB	6.081	12.863	3.368	C.3	8	VAL846	0.000	
34	 CG1	4.905	13.308	2.507	C.3	8	VAL846	0.000	
35	 CG2	6.746	11.623	2.785	C.3	8	VAL846	0.000	
36	  CG	-0.083	19.616	2.653	C.3	9	GLU848	0.000	
37	  CD	-1.194	19.856	3.657	C.2	9	GLU848	0.000	
38	 OE1	-1.129	19.319	4.785	O.co2	9	GLU848	0.000	
39	 OE2	-2.147	20.586	3.322	O.co2	9	GLU848	0.000	
40	   C	4.110	15.758	-1.726	C.2	10	ALA864	0.000	
41	   O	4.269	15.357	-2.869	O.2	10	ALA864	0.000	
42	  CB	2.166	14.547	-0.655	C.3	10	ALA864	0.000	
43	   N	5.123	16.055	-0.928	N.am	11	VAL865	0.000	
44	   N	8.022	14.257	-1.049	N.3	12	LYS866	0.000	
45	  CB	9.033	12.025	-0.817	C.3	12	LYS866	0.000	
46	  CG	10.207	11.168	-0.307	C.3	12	LYS866	0.000	
47	  CD	9.781	10.128	0.697	C.3	12	LYS866	0.000	
48	  CE	10.918	9.181	1.053	C.3	12	LYS866	0.000	
49	  NZ	10.455	7.761	1.151	N.4	12	LYS866	0.000	
50	   O	13.622	8.493	-5.638	O.3	13	LEU880	0.000	
51	   N	15.513	6.187	-7.086	N.3	14	SER882	0.000	
52	  CA	14.919	4.920	-7.506	C.3	14	SER882	0.000	
53	   C	13.394	4.894	-7.358	C.3	14	SER882	0.000	
54	   O	12.699	4.437	-8.275	O.2	14	SER882	0.000	
55	  CB	15.563	3.758	-6.757	C.3	14	SER882	0.000	
56	   N	12.895	5.360	-6.210	N.3	15	GLU883	0.000	
57	   N	12.866	5.366	-6.231	N.3	15	GLU883	0.000	
58	  CA	11.454	5.570	-6.000	C.3	15	GLU883	0.000	
59	  CA	11.407	5.474	-6.072	C.3	15	GLU883	0.000	
60	   C	10.819	6.305	-7.183	C.2	15	GLU883	0.000	
61	   C	10.780	6.324	-7.189	C.2	15	GLU883	0.000	
62	   O	9.779	5.898	-7.706	O.2	15	GLU883	0.000	
63	   O	9.696	6.004	-7.684	O.2	15	GLU883	0.000	
64	  CB	11.191	6.407	-4.731	C.3	15	GLU883	0.000	
65	  CB	11.040	6.044	-4.686	C.3	15	GLU883	0.000	
66	  CG	11.188	5.639	-3.405	C.3	15	GLU883	0.000	
67	  CG	9.611	6.618	-4.534	C.3	15	GLU883	0.000	
68	  CD	10.369	6.353	-2.326	C.2	15	GLU883	0.000	
69	  CD	8.503	5.561	-4.469	C.2	15	GLU883	0.000	
70	 OE1	9.215	6.736	-2.616	O.co2	15	GLU883	0.000	
71	 OE1	8.571	4.550	-5.209	O.co2	15	GLU883	0.000	
72	 OE2	10.862	6.525	-1.193	O.co2	15	GLU883	0.000	
73	 OE2	7.548	5.757	-3.672	O.co2	15	GLU883	0.000	
74	   N	11.460	7.398	-7.586	N.am	16	LEU884	0.000	
75	  CA	10.934	8.283	-8.633	C.3	16	LEU884	0.000	
76	   C	10.826	7.545	-9.967	C.2	16	LEU884	0.000	
77	   O	9.773	7.559	-10.626	O.2	16	LEU884	0.000	
78	  CB	11.820	9.535	-8.779	C.3	16	LEU884	0.000	
79	   N	11.921	6.911	-10.353	N.am	17	LYS885	0.000	
80	  CA	9.873	3.234	-10.380	C.3	18	ILE886	0.000	
81	   C	8.458	3.752	-10.649	C.2	18	ILE886	0.000	
82	   O	7.718	3.147	-11.413	O.2	18	ILE886	0.000	
83	  CB	9.920	2.523	-9.010	C.3	18	ILE886	0.000	
84	 CG1	11.103	1.561	-8.949	C.3	18	ILE886	0.000	
85	 CG2	8.628	1.738	-8.762	C.3	18	ILE886	0.000	
86	 CD1	11.300	0.901	-7.567	C.3	18	ILE886	0.000	
87	   N	8.106	4.883	-10.032	N.am	19	LEU887	0.000	
88	  CA	6.811	5.518	-10.244	C.3	19	LEU887	0.000	
89	   C	6.602	5.951	-11.699	C.2	19	LEU887	0.000	
90	   O	5.522	5.761	-12.263	O.2	19	LEU887	0.000	
91	  CB	6.643	6.710	-9.312	C.3	19	LEU887	0.000	
92	  CG	6.489	6.427	-7.814	C.3	19	LEU887	0.000	
93	 CD1	6.665	7.728	-7.018	C.3	19	LEU887	0.000	
94	 CD2	5.140	5.777	-7.497	C.3	19	LEU887	0.000	
95	   N	7.636	6.526	-12.308	N.am	20	ILE888	0.000	
96	 CG1	5.134	1.135	-10.966	C.3	21	ILE890	0.000	
97	 CD1	5.089	1.375	-9.428	C.3	21	ILE890	0.000	
98	 ND1	-2.887	8.968	-13.087	N.2	22	HIS892	0.000	
99	 CE1	-4.191	9.022	-12.871	C.2	22	HIS892	0.000	
100	   O	-3.900	6.070	-10.385	O.3	23	HIS893	0.000	
101	  CB	-1.149	3.736	-7.706	C.3	24	VAL896	0.000	
102	 CG1	-1.544	2.294	-8.067	C.3	24	VAL896	0.000	
103	  CA	-0.687	7.572	-5.521	C.3	25	VAL897	0.000	
104	   C	0.188	7.956	-6.704	C.2	25	VAL897	0.000	
105	   O	1.256	7.378	-6.887	O.2	25	VAL897	0.000	
106	  CB	0.105	7.730	-4.197	C.3	25	VAL897	0.000	
107	 CG1	0.569	9.177	-3.976	C.3	25	VAL897	0.000	
108	 CG2	-0.759	7.240	-2.978	C.3	25	VAL897	0.000	
109	   N	-0.265	8.909	-7.519	N.am	26	ASN898	0.000	
110	  CB	-0.506	9.523	-9.904	C.3	26	ASN898	0.000	
111	  CG	-1.364	8.315	-10.262	C.2	26	ASN898	0.000	
112	 ND2	-2.665	8.418	-9.993	N.pl3	26	ASN898	0.000	
113	 OD1	-0.866	7.299	-10.759	O.2	26	ASN898	0.000	
114	   O	7.520	14.221	-4.007	O.3	27	VAL912	0.000	
115	 CG1	8.660	11.525	-5.983	C.3	27	VAL912	0.000	
116	  CB	2.982	11.912	-5.004	C.3	28	VAL914	0.000	
117	 CG1	4.253	11.185	-5.409	C.3	28	VAL914	0.000	
118	 CG2	2.918	12.112	-3.481	C.3	28	VAL914	0.000	
119	   N	0.460	13.249	-5.800	N.3	29	GLU915	0.000	
120	  CA	-0.914	13.618	-5.458	C.3	29	GLU915	0.000	
121	   C	-1.118	13.580	-3.949	C.2	29	GLU915	0.000	
122	   O	-0.656	12.640	-3.297	O.2	29	GLU915	0.000	
123	  CB	-1.870	12.624	-6.119	C.3	29	GLU915	0.000	
124	  CG	-1.859	12.724	-7.634	C.3	29	GLU915	0.000	
125	  CD	-2.598	11.593	-8.352	C.2	29	GLU915	0.000	
126	 OE1	-2.825	10.501	-7.735	O.2	29	GLU915	0.000	
127	   N	-1.764	14.612	-3.405	N.am	30	PHE916	0.000	
128	  CA	-2.036	14.732	-1.956	C.3	30	PHE916	0.000	
129	   C	-3.358	14.066	-1.636	C.3	30	PHE916	0.000	
130	  CB	-2.086	16.200	-1.498	C.3	30	PHE916	0.000	
131	  CG	-2.392	16.383	-0.014	C.2	30	PHE916	0.000	
132	 CD1	-1.584	15.800	0.959	C.2	30	PHE916	0.000	
133	 CD2	-3.476	17.145	0.398	C.2	30	PHE916	0.000	
134	 CE1	-1.851	15.970	2.311	C.2	30	PHE916	0.000	
135	 CE2	-3.762	17.317	1.752	C.2	30	PHE916	0.000	
136	  CZ	-2.950	16.730	2.715	C.2	30	PHE916	0.000	
137	   N	-3.324	13.155	-0.674	N.3	31	CYS917	0.000	
138	  CA	-4.532	12.493	-0.197	C.3	31	CYS917	0.000	
139	   C	-4.859	13.115	1.163	C.2	31	CYS917	0.000	
140	   O	-4.124	12.937	2.143	O.2	31	CYS917	0.000	
141	  CB	-4.298	10.991	-0.131	C.3	31	CYS917	0.000	
142	  SG	-3.836	10.306	-1.764	S.3	31	CYS917	0.000	
143	   N	-5.939	13.887	1.198	N.am	32	LYS918	0.000	
144	  CA	-6.205	14.767	2.346	C.3	32	LYS918	0.000	
145	   C	-6.678	14.058	3.617	C.2	32	LYS918	0.000	
146	   O	-6.575	14.629	4.701	O.2	32	LYS918	0.000	
147	  CB	-7.186	15.898	1.966	C.3	32	LYS918	0.000	
148	  CG	-8.675	15.528	2.021	C.3	32	LYS918	0.000	
149	  CE	-9.133	18.030	2.616	C.3	32	LYS918	0.000	
150	   N	-7.190	12.834	3.490	N.am	33	PHE919	0.000	
151	  CA	-7.699	12.075	4.649	C.3	33	PHE919	0.000	
152	   C	-6.693	11.117	5.295	C.2	33	PHE919	0.000	
153	   O	-7.016	10.450	6.286	O.2	33	PHE919	0.000	
154	 CD1	-10.664	13.110	4.830	C.3	33	PHE919	0.000	
155	   N	-5.479	11.056	4.753	N.am	34	GLY920	0.000	
156	  CA	-4.425	10.237	5.333	C.3	34	GLY920	0.000	
157	   C	-4.715	8.769	5.139	C.2	34	GLY920	0.000	
158	   O	-5.471	8.403	4.238	O.2	34	GLY920	0.000	
159	   N	-4.108	7.927	5.968	N.am	35	ASN921	0.000	
160	  CA	-4.156	6.478	5.759	C.3	35	ASN921	0.000	
161	  CB	-3.008	5.769	6.510	C.3	35	ASN921	0.000	
162	  CG	-3.345	5.454	7.963	C.2	35	ASN921	0.000	
163	 ND2	-2.766	6.218	8.889	N.pl3	35	ASN921	0.000	
164	 OD1	-4.089	4.509	8.248	O.2	35	ASN921	0.000	
165	  CB	-5.560	6.584	10.896	C.3	36	THR924	0.000	
166	 CG2	-5.906	7.693	11.880	C.3	36	THR924	0.000	
167	 OG1	-4.301	6.012	11.266	O.3	36	THR924	0.000	
168	 CD2	1.387	-0.462	-8.998	C.3	37	LEU1017	0.000	
169	   N	3.918	-5.774	-13.766	N.3	38	LYS1021	0.000	
170	  CA	4.890	-6.742	-13.273	C.3	38	LYS1021	0.000	
171	   C	5.545	-6.277	-11.959	C.2	38	LYS1021	0.000	
172	   O	6.731	-6.528	-11.743	O.2	38	LYS1021	0.000	
173	   N	5.374	-6.375	-7.605	N.3	39	ILE1023	0.000	
174	  CA	4.915	-6.928	-6.344	C.3	39	ILE1023	0.000	
175	   O	6.097	-5.152	-5.274	O.3	39	ILE1023	0.000	
176	 CD2	2.287	-1.558	-2.722	C.3	40	HIS1024	0.000	
177	 NE2	2.328	-0.803	-1.575	N.3	40	HIS1024	0.000	
178	 OD2	5.363	-1.710	4.044	 O	41	ASP1026	0.000	
179	   C	-1.140	2.469	5.295	C.2	42	ARG1030	0.000	
180	   O	-0.697	3.611	5.256	O.2	42	ARG1030	0.000	
181	  CB	-0.824	1.639	7.644	C.3	42	ARG1030	0.000	
182	  NE	2.161	-0.752	7.736	N.3	42	ARG1030	0.000	
183	  CB	0.581	0.915	2.551	C.3	43	ASN1031	0.000	
184	  CG	1.813	0.883	3.447	C.2	43	ASN1031	0.000	
185	 ND2	2.361	-0.306	3.684	N.pl3	43	ASN1031	0.000	
186	 OD1	2.249	1.920	3.934	O.2	43	ASN1031	0.000	
187	  CG	-2.011	7.386	1.360	C.3	44	LEU1033	0.000	
188	 CD1	-1.141	8.555	0.875	C.3	44	LEU1033	0.000	
189	 CD2	-2.005	7.311	2.909	C.3	44	LEU1033	0.000	
190	   O	-0.611	3.963	-3.950	O.3	45	ILE1042	0.000	
191	  CA	0.981	4.106	-1.737	C.3	46	CYS1043	0.000	
192	   C	2.107	3.179	-1.277	C.2	46	CYS1043	0.000	
193	   O	1.981	1.967	-1.334	O.2	46	CYS1043	0.000	
194	  CB	0.863	5.352	-0.864	C.3	46	CYS1043	0.000	
195	  SG	0.722	5.023	0.860	S.3	46	CYS1043	0.000	
196	   N	3.216	3.771	-0.841	N.am	47	ASP1044	0.000	
197	  CA	4.450	3.046	-0.517	C.3	47	ASP1044	0.000	
198	   C	4.857	2.071	-1.617	C.2	47	ASP1044	0.000	
199	   O	4.506	0.896	-1.607	O.2	47	ASP1044	0.000	
200	  CB	4.372	2.367	0.865	C.3	47	ASP1044	0.000	
201	  CG	5.169	3.119	1.926	C.2	47	ASP1044	0.000	
202	 OD1	6.119	3.836	1.546	O.co2	47	ASP1044	0.000	
203	 OD2	4.860	2.983	3.136	O.co2	47	ASP1044	0.000	
204	   N	5.599	2.609	-2.573	N.am	48	PHE1045	0.000	
205	  CA	6.246	1.826	-3.612	C.3	48	PHE1045	0.000	
206	   C	7.762	1.770	-3.373	C.2	48	PHE1045	0.000	
207	   O	8.535	1.510	-4.296	O.2	48	PHE1045	0.000	
208	  CB	5.916	2.436	-4.977	C.3	48	PHE1045	0.000	
209	  CG	4.451	2.518	-5.238	C.2	48	PHE1045	0.000	
210	 CD1	3.739	3.662	-4.923	C.2	48	PHE1045	0.000	
211	 CD2	3.769	1.431	-5.757	C.2	48	PHE1045	0.000	
212	 CE1	2.382	3.725	-5.149	C.2	48	PHE1045	0.000	
213	 CE2	2.422	1.498	-5.982	C.2	48	PHE1045	0.000	
214	  CZ	1.731	2.639	-5.678	C.2	48	PHE1045	0.000	
215	   N	8.170	1.989	-2.122	N.am	49	GLY1046	0.000	
216	  CA	9.576	1.937	-1.735	C.3	49	GLY1046	0.000	
217	   C	10.120	0.525	-1.619	C.2	49	GLY1046	0.000	
218	   O	11.334	0.328	-1.557	O.2	49	GLY1046	0.000	
219	   N	9.227	-0.460	-1.563	N.am	50	LEU1047	0.000	
220	  CA	9.624	-1.862	-1.571	C.3	50	LEU1047	0.000	
221	   C	8.986	-2.590	-2.758	C.2	50	LEU1047	0.000	
222	   O	8.919	-3.829	-2.773	O.2	50	LEU1047	0.000	
223	  CB	9.229	-2.531	-0.248	C.3	50	LEU1047	0.000	
224	   N	8.515	-1.823	-3.747	N.am	51	ALA1048	0.000	
225	  CA	7.911	-2.405	-4.945	C.3	51	ALA1048	0.000	
226	   C	9.022	-2.993	-5.813	C.2	51	ALA1048	0.000	
227	   O	10.050	-2.345	-6.042	O.2	51	ALA1048	0.000	
228	  CB	7.109	-1.360	-5.718	C.3	51	ALA1048	0.000	
229	   N	8.817	-4.232	-6.263	N.am	52	ARG1049	0.000	
230	  CA	9.827	-4.957	-7.040	C.3	52	ARG1049	0.000	
231	   C	9.257	-5.414	-8.380	C.2	52	ARG1049	0.000	
232	   O	8.044	-5.460	-8.550	O.2	52	ARG1049	0.000	
233	  CB	10.350	-6.151	-6.237	C.3	52	ARG1049	0.000	
234	  CG	11.130	-5.761	-4.974	C.3	52	ARG1049	0.000	
235	  CD	12.457	-5.101	-5.310	C.3	52	ARG1049	0.000	
236	   N	10.143	-5.748	-9.318	N.am	53	ASP1050	0.000	
237	  CA	9.758	-6.042	-10.702	C.3	53	ASP1050	0.000	
238	   C	10.034	-7.498	-11.080	C.3	53	ASP1050	0.000	
239	   N	8.980	-8.323	-11.067	N.3	54	ILE1051	0.000	
@<TRIPOS>BOND
1 1 2 1
2 3 4 1
3 4 5 1
4 5 6 1
5 6 7 1
6 7 8 1
7 8 9 1
8 11 12 1
9 11 14 1
10 12 13 2
11 12 18 1
12 14 15 1
13 15 16 1
14 15 17 1
15 18 19 1
16 19 20 1
17 20 21 2
18 22 23 1
19 23 24 1
20 24 25 1
21 25 26 1
22 26 27 2
23 26 28 1
24 29 30 1
25 30 31 1
26 31 32 2
27 33 34 1
28 33 35 1
29 36 37 1
30 37 38 2
31 37 39 1
32 40 41 2
33 40 43 1
34 45 46 1
35 46 47 1
36 47 48 1
37 48 49 1
38 51 52 1
39 52 53 1
40 52 55 1
41 53 54 2
42 53 56 1
43 53 57 1
44 56 58 1
45 57 59 1
46 58 60 1
47 58 64 1
48 59 61 1
49 59 65 1
50 60 62 2
51 60 74 1
52 61 63 2
53 61 74 1
54 64 66 1
55 65 67 1
56 66 68 1
57 67 69 1
58 68 70 2
59 68 72 1
60 69 71 2
61 69 73 1
62 74 75 1
63 75 76 1
64 75 78 1
65 76 77 2
66 76 79 1
67 80 81 1
68 80 83 1
69 81 82 2
70 81 87 1
71 83 84 1
72 83 85 1
73 84 86 1
74 87 88 1
75 88 89 1
76 88 91 1
77 89 90 2
78 89 95 1
79 91 92 1
80 92 93 1
81 92 94 1
82 96 97 1
83 98 99 2
84 101 102 1
85 103 104 1
86 103 106 1
87 104 105 2
88 104 109 1
89 106 107 1
90 106 108 1
91 110 111 1
92 111 112 1
93 111 113 2
94 116 117 1
95 116 118 1
96 119 120 1
97 120 121 1
98 120 123 1
99 121 122 2
100 121 127 1
101 123 124 1
102 124 125 1
103 125 126 2
104 127 128 1
105 128 129 1
106 128 130 1
107 129 137 1
108 130 131 1
109 131 132 2
110 131 133 1
111 132 134 1
112 133 135 2
113 134 136 2
114 135 136 1
115 137 138 1
116 138 139 1
117 138 141 1
118 139 140 2
119 139 143 1
120 141 142 1
121 143 144 1
122 144 145 1
123 144 147 1
124 145 146 2
125 145 150 1
126 147 148 1
127 150 151 1
128 151 152 1
129 152 153 2
130 152 155 1
131 155 156 1
132 156 157 1
133 157 158 2
134 157 159 1
135 159 160 1
136 160 161 1
137 161 162 1
138 162 163 1
139 162 164 2
140 165 166 1
141 165 167 1
142 169 170 1
143 170 171 1
144 171 172 2
145 173 174 1
146 176 177 1
147 179 180 2
148 183 184 1
149 184 185 1
150 184 186 2
151 187 188 1
152 187 189 1
153 191 192 1
154 191 194 1
155 192 193 2
156 192 196 1
157 194 195 1
158 196 197 1
159 197 198 1
160 197 200 1
161 198 199 2
162 198 204 1
163 200 201 1
164 201 202 2
165 201 203 1
166 204 205 1
167 205 206 1
168 205 208 1
169 206 207 2
170 206 215 1
171 208 209 1
172 209 210 2
173 209 211 1
174 210 212 1
175 211 213 2
176 212 214 2
177 213 214 1
178 215 216 1
179 216 217 1
180 217 218 2
181 217 219 1
182 219 220 1
183 220 221 1
184 220 223 1
185 221 222 2
186 221 224 1
187 224 225 1
188 225 226 1
189 225 228 1
190 226 227 2
191 226 229 1
192 229 230 1
193 230 231 1
194 230 233 1
195 231 232 2
196 231 236 1
197 233 234 1
198 234 235 1
199 236 237 1
200 237 238 1
201 238 239 1
@<TRIPOS>SUBSTRUCTURE
1	CYS815	1	RESIDUE	1 A	CYS
2	GLY835	3	RESIDUE	1 A	GLY
3	LYS836	6	RESIDUE	1 A	LYS
4	LEU838	11	RESIDUE	1 A	LEU
5	GLY839	18	RESIDUE	1 A	GLY
6	ARG840	22	RESIDUE	1 A	ARG
7	GLY844	29	RESIDUE	1 A	GLY
8	VAL846	33	RESIDUE	1 A	VAL
9	GLU848	36	RESIDUE	1 A	GLU
10	ALA864	40	RESIDUE	1 A	ALA
11	VAL865	43	RESIDUE	1 A	VAL
12	LYS866	44	RESIDUE	1 A	LYS
13	LEU880	50	RESIDUE	1 A	LEU
14	SER882	51	RESIDUE	1 A	SER
15	GLU883	56	RESIDUE	1 A	GLU
16	LEU884	74	RESIDUE	1 A	LEU
17	LYS885	79	RESIDUE	1 A	LYS
18	ILE886	80	RESIDUE	1 A	ILE
19	LEU887	87	RESIDUE	1 A	LEU
20	ILE888	95	RESIDUE	1 A	ILE
21	ILE890	96	RESIDUE	1 A	ILE
22	HIS892	98	RESIDUE	1 A	HIS
23	HIS893	100	RESIDUE	1 A	HIS
24	VAL896	101	RESIDUE	1 A	VAL
25	VAL897	103	RESIDUE	1 A	VAL
26	ASN898	109	RESIDUE	1 A	ASN
27	VAL912	114	RESIDUE	1 A	VAL
28	VAL914	116	RESIDUE	1 A	VAL
29	GLU915	119	RESIDUE	1 A	GLU
30	PHE916	127	RESIDUE	1 A	PHE
31	CYS917	137	RESIDUE	1 A	CYS
32	LYS918	143	RESIDUE	1 A	LYS
33	PHE919	150	RESIDUE	1 A	PHE
34	GLY920	155	RESIDUE	1 A	GLY
35	ASN921	159	RESIDUE	1 A	ASN
36	THR924	165	RESIDUE	1 A	THR
37	LEU1017	168	RESIDUE	1 A	LEU
38	LYS1021	169	RESIDUE	1 A	LYS
39	ILE1023	173	RESIDUE	1 A	ILE
40	HIS1024	176	RESIDUE	1 A	HIS
41	ASP1026	178	RESIDUE	1 A	ASP
42	ARG1030	179	RESIDUE	1 A	ARG
43	ASN1031	183	RESIDUE	1 A	ASN
44	LEU1033	187	RESIDUE	1 A	LEU
45	ILE1042	190	RESIDUE	1 A	ILE
46	CYS1043	191	RESIDUE	1 A	CYS
47	ASP1044	196	RESIDUE	1 A	ASP
48	PHE1045	204	RESIDUE	1 A	PHE
49	GLY1046	215	RESIDUE	1 A	GLY
50	LEU1047	219	RESIDUE	1 A	LEU
51	ALA1048	224	RESIDUE	1 A	ALA
52	ARG1049	229	RESIDUE	1 A	ARG
53	ASP1050	236	RESIDUE	1 A	ASP
54	ILE1051	239	RESIDUE	1 A	ILE
