# created with PyMOL 2.5.4
@<TRIPOS>MOLECULE
3V5Q_B_aligned_pocket
250 202 55              
SMALL
USER_CHARGES
@<TRIPOS>ATOM
1	   N	4.528	24.072	3.281	N.3	1	LYS541	0.000	
2	  CA	3.453	24.646	4.084	C.3	1	LYS541	0.000	
3	   C	3.430	24.074	5.490	C.2	1	LYS541	0.000	
4	   O	3.482	24.826	6.462	O.2	1	LYS541	0.000	
5	  CB	2.096	24.448	3.404	C.3	1	LYS541	0.000	
6	  CG	1.944	25.209	2.104	C.3	1	LYS541	0.000	
7	  CD	1.354	26.583	2.373	C.3	1	LYS541	0.000	
8	   N	3.358	22.751	5.600	N.am	2	ARG542	0.000	
9	  CA	3.254	22.111	6.904	C.3	2	ARG542	0.000	
10	   C	3.606	20.645	6.816	C.3	2	ARG542	0.000	
11	  CB	1.841	22.254	7.475	C.3	2	ARG542	0.000	
12	  CG	0.839	21.268	6.906	C.3	2	ARG542	0.000	
13	  CD	-0.434	21.201	7.751	C.3	2	ARG542	0.000	
14	  NE	-1.591	21.737	7.036	N.pl3	2	ARG542	0.000	
15	  CZ	-2.659	21.022	6.697	C.cat	2	ARG542	0.000	
16	 NH1	-2.729	19.735	7.017	N.pl3	2	ARG542	0.000	
17	 NH2	-3.664	21.599	6.050	N.pl3	2	ARG542	0.000	
18	   O	1.815	18.046	8.741	O.3	3	GLU543	0.000	
19	 OE1	3.477	16.222	10.569	O.3	3	GLU543	0.000	
20	 OE2	5.299	15.001	10.800	 O	3	GLU543	0.000	
21	  CA	1.755	15.667	7.276	C.3	4	LEU544	0.000	
22	   C	2.334	14.437	7.972	C.2	4	LEU544	0.000	
23	   O	1.636	13.739	8.707	O.2	4	LEU544	0.000	
24	  CB	1.275	15.321	5.862	C.3	4	LEU544	0.000	
25	  CG	0.622	16.435	5.025	C.3	4	LEU544	0.000	
26	 CD1	0.616	16.101	3.530	C.3	4	LEU544	0.000	
27	 CD2	-0.796	16.719	5.500	C.3	4	LEU544	0.000	
28	   N	3.626	14.202	7.748	N.am	5	GLY545	0.000	
29	  CA	4.373	13.129	8.390	C.3	5	GLY545	0.000	
30	   C	5.865	13.224	8.094	C.2	5	GLY545	0.000	
31	   O	6.696	12.530	8.693	O.2	5	GLY545	0.000	
32	   N	11.723	10.792	4.935	N.3	6	PHE550	0.000	
33	  CA	11.033	10.505	6.183	C.3	6	PHE550	0.000	
34	   C	10.076	11.618	6.570	C.2	6	PHE550	0.000	
35	   O	8.959	11.374	7.043	O.2	6	PHE550	0.000	
36	  CB	5.500	13.259	4.200	C.3	7	VAL552	0.000	
37	 CG1	4.476	13.631	3.151	C.3	7	VAL552	0.000	
38	 CG2	6.247	12.008	3.772	C.3	7	VAL552	0.000	
39	   O	3.551	21.461	2.417	O.3	8	LEU554	0.000	
40	 CD1	-0.587	19.869	1.184	C.3	8	LEU554	0.000	
41	 CD2	-1.146	21.418	3.114	C.3	8	LEU554	0.000	
42	   C	4.325	15.946	-1.259	C.2	9	ALA570	0.000	
43	   O	4.629	15.430	-2.341	O.2	9	ALA570	0.000	
44	  CB	2.252	14.869	-0.356	C.3	9	ALA570	0.000	
45	  CD	9.369	9.933	1.596	C.3	10	LYS572	0.000	
46	  CE	10.438	9.392	0.666	C.3	10	LYS572	0.000	
47	  NZ	10.550	7.900	0.709	N.4	10	LYS572	0.000	
48	   O	15.229	4.082	-5.167	O.3	11	ASP584	0.000	
49	   O	14.418	7.027	-6.320	O.3	12	PHE585	0.000	
50	   C	14.023	3.780	-8.592	C.2	13	ARG587	0.000	
51	   O	13.232	3.580	-9.518	O.2	13	ARG587	0.000	
52	   N	13.639	4.110	-7.360	N.am	14	GLU588	0.000	
53	  CA	12.232	4.249	-7.015	C.3	14	GLU588	0.000	
54	   C	11.579	5.339	-7.870	C.2	14	GLU588	0.000	
55	   O	10.421	5.218	-8.278	O.2	14	GLU588	0.000	
56	  CB	12.058	4.558	-5.525	C.3	14	GLU588	0.000	
57	  CG	10.587	4.731	-5.104	C.3	14	GLU588	0.000	
58	  CD	10.412	5.005	-3.614	C.2	14	GLU588	0.000	
59	 OE1	11.409	4.959	-2.857	O.co2	14	GLU588	0.000	
60	 OE2	9.274	5.271	-3.179	O.co2	14	GLU588	0.000	
61	   N	12.330	6.402	-8.140	N.am	15	ALA589	0.000	
62	  CA	11.794	7.522	-8.919	C.3	15	ALA589	0.000	
63	   C	11.522	7.074	-10.349	C.2	15	ALA589	0.000	
64	   O	10.502	7.418	-10.951	O.2	15	ALA589	0.000	
65	  CB	12.750	8.716	-8.907	C.3	15	ALA589	0.000	
66	   O	7.744	3.646	-12.030	O.3	16	LEU591	0.000	
67	  CB	10.011	2.294	-9.856	C.3	16	LEU591	0.000	
68	  CG	8.786	1.411	-9.635	C.3	16	LEU591	0.000	
69	 CD1	8.767	0.283	-10.684	C.3	16	LEU591	0.000	
70	 CD2	8.738	0.863	-8.205	C.3	16	LEU591	0.000	
71	   N	8.437	4.739	-10.183	N.3	17	LEU592	0.000	
72	  CA	7.217	5.529	-10.037	C.3	17	LEU592	0.000	
73	   C	6.932	6.412	-11.239	C.2	17	LEU592	0.000	
74	   O	5.794	6.862	-11.436	O.2	17	LEU592	0.000	
75	  CB	7.263	6.373	-8.761	C.3	17	LEU592	0.000	
76	  CG	7.239	5.489	-7.513	C.3	17	LEU592	0.000	
77	 CD1	7.468	6.322	-6.259	C.3	17	LEU592	0.000	
78	 CD2	5.928	4.720	-7.443	C.3	17	LEU592	0.000	
79	   N	7.962	6.677	-12.035	N.am	18	THR593	0.000	
80	  CA	7.765	7.456	-13.238	C.3	18	THR593	0.000	
81	   O	2.859	4.334	-10.689	O.3	19	LEU595	0.000	
82	  CG	4.042	1.160	-10.190	C.3	19	LEU595	0.000	
83	 CD1	4.021	-0.066	-11.092	C.3	19	LEU595	0.000	
84	 CD2	4.738	0.855	-8.868	C.3	19	LEU595	0.000	
85	   O	-3.184	5.730	-10.653	O.3	20	HIS597	0.000	
86	   O	-1.759	6.714	-8.029	O.3	21	ILE600	0.000	
87	  CB	-0.720	3.811	-8.369	C.3	21	ILE600	0.000	
88	 CG1	-1.030	2.342	-8.701	C.3	21	ILE600	0.000	
89	 CG2	0.682	3.965	-7.761	C.3	21	ILE600	0.000	
90	 CD1	-1.182	1.458	-7.459	C.3	21	ILE600	0.000	
91	  CA	-0.655	7.537	-5.609	C.3	22	VAL601	0.000	
92	   C	0.181	8.114	-6.736	C.2	22	VAL601	0.000	
93	   O	1.084	7.460	-7.256	O.2	22	VAL601	0.000	
94	  CB	0.133	7.585	-4.293	C.3	22	VAL601	0.000	
95	 CG1	0.530	9.048	-3.930	C.3	22	VAL601	0.000	
96	 CG2	-0.719	6.993	-3.172	C.3	22	VAL601	0.000	
97	   N	-0.186	9.308	-7.173	N.am	23	LYS602	0.000	
98	  CB	5.182	9.441	-8.656	C.3	24	PHE603	0.000	
99	  CG	6.605	9.900	-8.716	C.2	24	PHE603	0.000	
100	 CD1	7.202	10.493	-7.606	C.2	24	PHE603	0.000	
101	 CD2	7.344	9.764	-9.885	C.3	24	PHE603	0.000	
102	   O	8.324	14.433	-2.911	O.3	25	MET615	0.000	
103	  SD	10.319	9.239	-4.004	S.3	25	MET615	0.000	
104	  CE	11.668	8.354	-4.801	C.3	25	MET615	0.000	
105	   C	5.642	14.225	-5.559	C.3	26	VAL616	0.000	
106	   N	4.701	14.054	-4.627	N.3	27	PHE617	0.000	
107	  CA	3.523	13.206	-4.799	C.3	27	PHE617	0.000	
108	  CB	3.487	12.154	-3.693	C.3	27	PHE617	0.000	
109	  CG	4.567	11.111	-3.809	C.2	27	PHE617	0.000	
110	 CD1	5.691	11.158	-2.989	C.2	27	PHE617	0.000	
111	 CD2	4.451	10.079	-4.730	C.2	27	PHE617	0.000	
112	 CE1	6.683	10.200	-3.089	C.2	27	PHE617	0.000	
113	 CE2	5.438	9.112	-4.830	C.2	27	PHE617	0.000	
114	  CZ	6.556	9.174	-4.015	C.2	27	PHE617	0.000	
115	   N	1.117	13.438	-5.183	N.3	28	GLU618	0.000	
116	   C	-0.584	14.312	-3.617	C.2	28	GLU618	0.000	
117	   O	-0.117	13.608	-2.716	O.2	28	GLU618	0.000	
118	  CB	-1.278	13.434	-5.879	C.3	28	GLU618	0.000	
119	  CG	-1.801	12.089	-5.335	C.3	28	GLU618	0.000	
120	  CD	-2.905	11.475	-6.225	C.2	28	GLU618	0.000	
121	 OE1	-2.690	10.375	-6.766	O.co2	28	GLU618	0.000	
122	 OE2	-3.986	12.078	-6.386	O.co2	28	GLU618	0.000	
123	  CA	-2.019	15.495	-2.067	C.3	29	TYR619	0.000	
124	   C	-3.347	14.768	-1.954	C.3	29	TYR619	0.000	
125	  CB	-2.227	17.000	-1.831	C.3	29	TYR619	0.000	
126	  CG	-2.985	17.330	-0.567	C.2	29	TYR619	0.000	
127	 CD1	-2.489	16.960	0.676	C.2	29	TYR619	0.000	
128	 CE1	-3.179	17.275	1.852	C.2	29	TYR619	0.000	
129	 CE2	-4.891	18.356	0.558	C.3	29	TYR619	0.000	
130	  CZ	-4.378	17.979	1.785	C.2	29	TYR619	0.000	
131	  OH	-5.068	18.292	2.941	O.3	29	TYR619	0.000	
132	   N	-3.493	13.983	-0.887	N.3	30	MET620	0.000	
133	  CA	-4.720	13.224	-0.623	C.3	30	MET620	0.000	
134	   C	-5.269	13.718	0.697	C.2	30	MET620	0.000	
135	   O	-4.754	13.369	1.769	O.2	30	MET620	0.000	
136	  CB	-4.435	11.717	-0.542	C.3	30	MET620	0.000	
137	  CG	-3.839	11.120	-1.811	C.3	30	MET620	0.000	
138	  CA	-6.702	15.354	1.749	C.3	31	LYS621	0.000	
139	   C	-7.094	14.558	2.993	C.2	31	LYS621	0.000	
140	   O	-6.933	15.048	4.121	O.2	31	LYS621	0.000	
141	  CB	-7.805	16.339	1.347	C.3	31	LYS621	0.000	
142	   N	-7.575	13.329	2.806	N.am	32	HIS622	0.000	
143	  CA	-8.055	12.570	3.956	C.3	32	HIS622	0.000	
144	   C	-7.051	11.636	4.634	C.2	32	HIS622	0.000	
145	   O	-7.386	10.958	5.612	O.2	32	HIS622	0.000	
146	 CD2	-11.052	13.712	4.572	C.3	32	HIS622	0.000	
147	   N	-5.812	11.654	4.156	N.am	33	GLY623	0.000	
148	  CA	-4.728	11.037	4.894	C.3	33	GLY623	0.000	
149	   C	-4.733	9.546	4.677	C.2	33	GLY623	0.000	
150	   O	-5.321	9.056	3.700	O.2	33	GLY623	0.000	
151	   N	-4.080	8.804	5.562	N.am	34	ASP624	0.000	
152	  CA	-3.960	7.381	5.295	C.3	34	ASP624	0.000	
153	  CB	-2.726	6.751	5.948	C.3	34	ASP624	0.000	
154	  CG	-2.991	6.310	7.339	C.2	34	ASP624	0.000	
155	 OD1	-3.420	5.145	7.528	O.co2	34	ASP624	0.000	
156	 OD2	-2.804	7.149	8.241	O.co2	34	ASP624	0.000	
157	  CB	-5.462	7.452	10.217	C.3	35	LYS627	0.000	
158	  CG	-5.770	8.473	11.283	C.3	35	LYS627	0.000	
159	  CD	-5.593	9.911	10.810	C.3	35	LYS627	0.000	
160	  CE	-4.371	10.565	11.453	C.3	35	LYS627	0.000	
161	  NZ	-4.444	12.056	11.406	N.4	35	LYS627	0.000	
162	 CD2	1.582	-1.387	-8.270	C.3	36	LEU670	0.000	
163	   C	4.141	-5.451	-13.542	C.2	37	GLN673	0.000	
164	   O	5.305	-5.066	-13.346	O.2	37	GLN673	0.000	
165	   N	3.689	-6.646	-13.166	N.am	38	HIS674	0.000	
166	  CA	4.555	-7.622	-12.534	C.3	38	HIS674	0.000	
167	   C	5.215	-7.027	-11.294	C.2	38	HIS674	0.000	
168	   O	6.357	-7.355	-10.956	O.2	38	HIS674	0.000	
169	   N	4.498	-6.131	-10.626	N.am	39	PHE675	0.000	
170	  CA	5.025	-5.541	-9.425	C.3	39	PHE675	0.000	
171	   C	4.499	-6.256	-8.196	C.2	39	PHE675	0.000	
172	   O	3.286	-6.429	-8.038	O.2	39	PHE675	0.000	
173	  CB	4.693	-4.052	-9.365	C.3	39	PHE675	0.000	
174	  CG	5.305	-3.368	-8.192	C.2	39	PHE675	0.000	
175	 CD1	4.633	-3.294	-6.982	C.2	39	PHE675	0.000	
176	 CD2	6.589	-2.843	-8.281	C.2	39	PHE675	0.000	
177	 CE1	5.220	-2.673	-5.886	C.2	39	PHE675	0.000	
178	 CE2	7.171	-2.227	-7.198	C.2	39	PHE675	0.000	
179	  CZ	6.487	-2.142	-5.999	C.2	39	PHE675	0.000	
180	   N	5.415	-6.688	-7.333	N.am	40	VAL676	0.000	
181	  CA	5.058	-7.314	-6.060	C.3	40	VAL676	0.000	
182	   O	6.452	-5.760	-4.876	O.3	40	VAL676	0.000	
183	 OD2	4.868	-2.014	4.581	 O	41	ASP679	0.000	
184	   C	-0.976	2.506	5.248	C.2	42	ARG683	0.000	
185	   O	-0.451	3.611	5.297	O.2	42	ARG683	0.000	
186	  CB	-0.831	1.477	7.506	C.3	42	ARG683	0.000	
187	   O	-0.753	2.761	0.732	O.3	43	ASN684	0.000	
188	  CB	0.731	1.103	2.397	C.3	43	ASN684	0.000	
189	  CG	2.044	0.990	3.137	C.2	43	ASN684	0.000	
190	 ND2	2.392	-0.224	3.541	N.pl3	43	ASN684	0.000	
191	 OD1	2.741	1.984	3.344	O.2	43	ASN684	0.000	
192	  CB	-3.404	8.207	0.437	C.3	44	LEU686	0.000	
193	  CG	-1.964	8.159	0.933	C.3	44	LEU686	0.000	
194	 CD1	-1.142	9.144	0.134	C.3	44	LEU686	0.000	
195	 CD2	-1.899	8.476	2.418	C.3	44	LEU686	0.000	
196	   O	-0.442	3.870	-4.111	O.3	45	ILE695	0.000	
197	  CA	1.411	3.783	-2.044	C.3	46	GLY696	0.000	
198	   C	2.262	2.799	-1.270	C.2	46	GLY696	0.000	
199	   O	1.776	1.749	-0.837	O.2	46	GLY696	0.000	
200	   N	3.532	3.132	-1.081	N.am	47	ASP697	0.000	
201	  CA	4.385	2.321	-0.235	C.3	47	ASP697	0.000	
202	   C	5.261	3.218	0.630	C.2	47	ASP697	0.000	
203	   O	6.306	3.693	0.186	O.2	47	ASP697	0.000	
204	  CB	5.251	1.393	-1.065	C.3	47	ASP697	0.000	
205	  CG	5.888	0.305	-0.222	C.2	47	ASP697	0.000	
206	 OD1	5.628	0.257	1.003	O.co2	47	ASP697	0.000	
207	 OD2	6.638	-0.505	-0.780	O.co2	47	ASP697	0.000	
208	   N	4.844	3.418	1.873	N.am	48	PHE698	0.000	
209	  CA	5.406	4.482	2.701	C.3	48	PHE698	0.000	
210	   C	6.488	4.002	3.650	C.2	48	PHE698	0.000	
211	   O	6.874	4.737	4.557	O.2	48	PHE698	0.000	
212	  CB	4.297	5.178	3.490	C.3	48	PHE698	0.000	
213	  CG	3.117	5.560	2.653	C.2	48	PHE698	0.000	
214	 CD1	3.300	6.111	1.385	C.2	48	PHE698	0.000	
215	 CD2	1.823	5.362	3.119	C.2	48	PHE698	0.000	
216	 CE1	2.217	6.460	0.599	C.2	48	PHE698	0.000	
217	 CE2	0.732	5.709	2.332	C.2	48	PHE698	0.000	
218	  CZ	0.933	6.261	1.067	C.2	48	PHE698	0.000	
219	   N	6.979	2.782	3.435	N.am	49	GLY699	0.000	
220	  CA	8.040	2.223	4.257	C.3	49	GLY699	0.000	
221	   C	7.552	1.792	5.632	C.2	49	GLY699	0.000	
222	   O	6.413	2.057	6.013	O.2	49	GLY699	0.000	
223	   N	8.419	1.143	6.399	N.am	50	MET700	0.000	
224	  CA	8.005	0.551	7.673	C.3	50	MET700	0.000	
225	   C	8.238	1.521	8.856	C.2	50	MET700	0.000	
226	   O	9.371	1.936	9.141	O.2	50	MET700	0.000	
227	  CB	8.637	-0.828	7.810	C.3	50	MET700	0.000	
228	  CG	8.353	-1.634	6.534	C.3	50	MET700	0.000	
229	  SD	9.145	-3.239	6.273	S.3	50	MET700	0.000	
230	  CE	8.083	-3.887	4.985	C.3	50	MET700	0.000	
231	   N	6.602	4.408	12.175	N.3	51	ASP703	0.000	
232	   O	3.914	4.968	12.992	O.3	51	ASP703	0.000	
233	 CG1	0.607	5.083	15.419	C.3	52	VAL704	0.000	
234	  CB	2.181	1.527	11.245	C.3	53	TYR705	0.000	
235	  CG	0.979	2.391	10.932	C.2	53	TYR705	0.000	
236	 CD1	1.054	3.417	9.996	C.2	53	TYR705	0.000	
237	 CD2	-0.231	2.185	11.583	C.2	53	TYR705	0.000	
238	 CE1	-0.051	4.219	9.716	C.2	53	TYR705	0.000	
239	 CE2	-1.335	2.976	11.309	C.2	53	TYR705	0.000	
240	  CZ	-1.240	3.990	10.375	C.2	53	TYR705	0.000	
241	  OH	-2.340	4.778	10.108	O.3	53	TYR705	0.000	
242	  CB	6.888	-4.378	11.302	C.3	54	TYR709	0.000	
243	  CG	6.277	-3.536	10.204	C.2	54	TYR709	0.000	
244	 CD1	5.665	-2.319	10.495	C.2	54	TYR709	0.000	
245	 CD2	6.309	-3.950	8.872	C.2	54	TYR709	0.000	
246	 CE1	5.101	-1.531	9.497	C.2	54	TYR709	0.000	
247	 CE2	5.738	-3.165	7.857	C.2	54	TYR709	0.000	
248	  CZ	5.138	-1.949	8.186	C.2	54	TYR709	0.000	
249	  OH	4.568	-1.152	7.214	O.3	54	TYR709	0.000	
250	  SD	10.676	-1.809	11.148	S.3	55	MET731	0.000	
@<TRIPOS>BOND
1 1 2 1
2 2 3 1
3 2 5 1
4 3 4 2
5 3 8 1
6 5 6 1
7 6 7 1
8 8 9 1
9 9 10 1
10 9 11 1
11 11 12 1
12 12 13 1
13 13 14 1
14 14 15 1
15 15 16 2
16 15 17 1
17 21 22 1
18 21 24 1
19 22 23 2
20 22 28 1
21 24 25 1
22 25 26 1
23 25 27 1
24 28 29 1
25 29 30 1
26 30 31 2
27 32 33 1
28 33 34 1
29 34 35 2
30 36 37 1
31 36 38 1
32 42 43 2
33 45 46 1
34 46 47 1
35 50 51 2
36 50 52 1
37 52 53 1
38 53 54 1
39 53 56 1
40 54 55 2
41 54 61 1
42 56 57 1
43 57 58 1
44 58 59 2
45 58 60 1
46 61 62 1
47 62 63 1
48 62 65 1
49 63 64 2
50 67 68 1
51 68 69 1
52 68 70 1
53 71 72 1
54 72 73 1
55 72 75 1
56 73 74 2
57 73 79 1
58 75 76 1
59 76 77 1
60 76 78 1
61 79 80 1
62 82 83 1
63 82 84 1
64 87 88 1
65 87 89 1
66 88 90 1
67 91 92 1
68 91 94 1
69 92 93 2
70 92 97 1
71 94 95 1
72 94 96 1
73 98 99 1
74 99 100 2
75 99 101 1
76 103 104 1
77 105 106 1
78 106 107 1
79 107 108 1
80 108 109 1
81 109 110 2
82 109 111 1
83 110 112 1
84 111 113 2
85 112 114 2
86 113 114 1
87 116 117 2
88 118 119 1
89 119 120 1
90 120 121 2
91 120 122 1
92 123 124 1
93 123 125 1
94 124 132 1
95 125 126 1
96 126 127 2
97 127 128 1
98 128 130 2
99 129 130 1
100 130 131 1
101 132 133 1
102 133 134 1
103 133 136 1
104 134 135 2
105 136 137 1
106 138 139 1
107 138 141 1
108 139 140 2
109 139 142 1
110 142 143 1
111 143 144 1
112 144 145 2
113 144 147 1
114 147 148 1
115 148 149 1
116 149 150 2
117 149 151 1
118 151 152 1
119 152 153 1
120 153 154 1
121 154 155 2
122 154 156 1
123 157 158 1
124 158 159 1
125 159 160 1
126 160 161 1
127 163 164 2
128 163 165 1
129 165 166 1
130 166 167 1
131 167 168 2
132 167 169 1
133 169 170 1
134 170 171 1
135 170 173 1
136 171 172 2
137 171 180 1
138 173 174 1
139 174 175 2
140 174 176 1
141 175 177 1
142 176 178 2
143 177 179 2
144 178 179 1
145 180 181 1
146 184 185 2
147 188 189 1
148 189 190 1
149 189 191 2
150 192 193 1
151 193 194 1
152 193 195 1
153 197 198 1
154 198 199 2
155 198 200 1
156 200 201 1
157 201 202 1
158 201 204 1
159 202 203 2
160 202 208 1
161 204 205 1
162 205 206 2
163 205 207 1
164 208 209 1
165 209 210 1
166 209 212 1
167 210 211 2
168 210 219 1
169 212 213 1
170 213 214 2
171 213 215 1
172 214 216 1
173 215 217 2
174 216 218 2
175 217 218 1
176 219 220 1
177 220 221 1
178 221 222 2
179 221 223 1
180 223 224 1
181 224 225 1
182 224 227 1
183 225 226 2
184 227 228 1
185 228 229 1
186 229 230 1
187 234 235 1
188 235 236 2
189 235 237 1
190 236 238 1
191 237 239 2
192 238 240 2
193 239 240 1
194 240 241 1
195 242 243 1
196 243 244 2
197 243 245 1
198 244 246 1
199 245 247 2
200 246 248 2
201 247 248 1
202 248 249 1
@<TRIPOS>SUBSTRUCTURE
1	LYS541	1	RESIDUE	1 B	LYS
2	ARG542	8	RESIDUE	1 B	ARG
3	GLU543	18	RESIDUE	1 B	GLU
4	LEU544	21	RESIDUE	1 B	LEU
5	GLY545	28	RESIDUE	1 B	GLY
6	PHE550	32	RESIDUE	1 B	PHE
7	VAL552	36	RESIDUE	1 B	VAL
8	LEU554	39	RESIDUE	1 B	LEU
9	ALA570	42	RESIDUE	1 B	ALA
10	LYS572	45	RESIDUE	1 B	LYS
11	ASP584	48	RESIDUE	1 B	ASP
12	PHE585	49	RESIDUE	1 B	PHE
13	ARG587	50	RESIDUE	1 B	ARG
14	GLU588	52	RESIDUE	1 B	GLU
15	ALA589	61	RESIDUE	1 B	ALA
16	LEU591	66	RESIDUE	1 B	LEU
17	LEU592	71	RESIDUE	1 B	LEU
18	THR593	79	RESIDUE	1 B	THR
19	LEU595	81	RESIDUE	1 B	LEU
20	HIS597	85	RESIDUE	1 B	HIS
21	ILE600	86	RESIDUE	1 B	ILE
22	VAL601	91	RESIDUE	1 B	VAL
23	LYS602	97	RESIDUE	1 B	LYS
24	PHE603	98	RESIDUE	1 B	PHE
25	MET615	102	RESIDUE	1 B	MET
26	VAL616	105	RESIDUE	1 B	VAL
27	PHE617	106	RESIDUE	1 B	PHE
28	GLU618	115	RESIDUE	1 B	GLU
29	TYR619	123	RESIDUE	1 B	TYR
30	MET620	132	RESIDUE	1 B	MET
31	LYS621	138	RESIDUE	1 B	LYS
32	HIS622	142	RESIDUE	1 B	HIS
33	GLY623	147	RESIDUE	1 B	GLY
34	ASP624	151	RESIDUE	1 B	ASP
35	LYS627	157	RESIDUE	1 B	LYS
36	LEU670	162	RESIDUE	1 B	LEU
37	GLN673	163	RESIDUE	1 B	GLN
38	HIS674	165	RESIDUE	1 B	HIS
39	PHE675	169	RESIDUE	1 B	PHE
40	VAL676	180	RESIDUE	1 B	VAL
41	ASP679	183	RESIDUE	1 B	ASP
42	ARG683	184	RESIDUE	1 B	ARG
43	ASN684	187	RESIDUE	1 B	ASN
44	LEU686	192	RESIDUE	1 B	LEU
45	ILE695	196	RESIDUE	1 B	ILE
46	GLY696	197	RESIDUE	1 B	GLY
47	ASP697	200	RESIDUE	1 B	ASP
48	PHE698	208	RESIDUE	1 B	PHE
49	GLY699	219	RESIDUE	1 B	GLY
50	MET700	223	RESIDUE	1 B	MET
51	ASP703	231	RESIDUE	1 B	ASP
52	VAL704	233	RESIDUE	1 B	VAL
53	TYR705	234	RESIDUE	1 B	TYR
54	TYR709	242	RESIDUE	1 B	TYR
55	MET731	250	RESIDUE	1 B	MET
