# created with PyMOL 2.5.4
@<TRIPOS>MOLECULE
3ZFM_A_aligned_pocket
219 180 50              
SMALL
USER_CHARGES
@<TRIPOS>ATOM
1	  CA	3.051	25.691	2.773	C.3	1	GLU624	0.000	
2	   C	3.116	25.257	4.240	C.2	1	GLU624	0.000	
3	   O	3.195	26.122	5.115	O.2	1	GLU624	0.000	
4	  CB	1.624	25.540	2.220	C.3	1	GLU624	0.000	
5	   N	3.061	23.935	4.513	N.am	2	GLN625	0.000	
6	  CA	3.063	23.392	5.878	C.3	2	GLN625	0.000	
7	   C	3.697	21.989	5.967	C.2	2	GLN625	0.000	
8	   O	4.001	21.379	4.944	O.2	2	GLN625	0.000	
9	  CB	1.618	23.363	6.423	C.3	2	GLN625	0.000	
10	  CG	1.496	23.743	7.894	C.3	2	GLN625	0.000	
11	  CD	0.075	23.624	8.381	C.3	2	GLN625	0.000	
12	   N	3.895	21.492	7.200	N.am	3	VAL626	0.000	
13	   O	2.812	19.935	9.274	O.3	3	VAL626	0.000	
14	  CA	2.085	17.280	8.584	C.3	4	ILE627	0.000	
15	   C	2.499	15.804	8.534	C.2	4	ILE627	0.000	
16	   O	3.184	15.382	7.604	O.2	4	ILE627	0.000	
17	  CB	0.633	17.532	8.057	C.3	4	ILE627	0.000	
18	 CG1	-0.437	16.796	8.901	C.3	4	ILE627	0.000	
19	 CG2	0.481	17.224	6.561	C.3	4	ILE627	0.000	
20	 CD1	-1.024	17.613	10.042	C.3	4	ILE627	0.000	
21	   N	13.174	8.928	5.708	N.3	5	PHE632	0.000	
22	  CA	14.424	9.582	5.325	C.3	5	PHE632	0.000	
23	  CB	14.652	9.498	3.804	C.3	5	PHE632	0.000	
24	  CG	14.886	8.103	3.273	C.3	5	PHE632	0.000	
25	 CD2	13.848	7.378	2.699	C.2	5	PHE632	0.000	
26	 CE2	14.066	6.089	2.202	C.2	5	PHE632	0.000	
27	  CZ	15.322	5.525	2.277	C.3	5	PHE632	0.000	
28	   N	13.496	11.834	5.457	N.3	6	GLY633	0.000	
29	  CB	5.962	13.797	4.929	C.3	7	VAL635	0.000	
30	 CG1	6.528	12.580	4.207	C.3	7	VAL635	0.000	
31	 CG2	5.745	13.497	6.413	C.3	7	VAL635	0.000	
32	   O	3.556	22.054	1.659	O.3	8	SER637	0.000	
33	  CB	1.168	20.444	3.026	C.3	8	SER637	0.000	
34	   O	4.212	15.759	-2.654	O.3	9	ALA651	0.000	
35	  CB	1.877	14.907	-0.950	C.3	9	ALA651	0.000	
36	   O	14.825	5.325	-2.181	O.3	10	ASP666	0.000	
37	   O	13.218	8.173	-3.165	O.3	11	PHE667	0.000	
38	   C	14.482	7.594	-6.120	C.2	12	LEU668	0.000	
39	   O	13.782	7.731	-7.128	O.2	12	LEU668	0.000	
40	   N	14.871	6.383	-5.649	N.am	13	SER669	0.000	
41	  CA	14.506	5.102	-6.274	C.3	13	SER669	0.000	
42	   C	13.014	4.802	-6.161	C.2	13	SER669	0.000	
43	   O	12.473	4.128	-7.039	O.2	13	SER669	0.000	
44	  CB	15.315	3.947	-5.690	C.3	13	SER669	0.000	
45	  OG	14.986	3.691	-4.333	O.3	13	SER669	0.000	
46	   N	12.360	5.294	-5.080	N.am	14	GLU670	0.000	
47	  CA	10.923	5.131	-4.833	C.3	14	GLU670	0.000	
48	   C	10.145	5.802	-5.962	C.2	14	GLU670	0.000	
49	   O	9.234	5.190	-6.515	O.2	14	GLU670	0.000	
50	  CB	10.522	5.732	-3.470	C.3	14	GLU670	0.000	
51	  CG	9.154	5.274	-2.977	C.3	14	GLU670	0.000	
52	  CD	8.335	6.268	-2.171	C.2	14	GLU670	0.000	
53	 OE1	8.592	7.490	-2.270	O.co2	14	GLU670	0.000	
54	 OE2	7.396	5.818	-1.474	O.co2	14	GLU670	0.000	
55	   N	10.554	7.034	-6.335	N.am	15	ALA671	0.000	
56	  CA	9.958	7.830	-7.412	C.3	15	ALA671	0.000	
57	   C	10.256	7.256	-8.807	C.2	15	ALA671	0.000	
58	   O	9.500	7.521	-9.743	O.2	15	ALA671	0.000	
59	  CB	10.431	9.271	-7.316	C.3	15	ALA671	0.000	
60	   N	11.347	6.472	-8.944	N.am	16	SER672	0.000	
61	  CA	11.737	5.828	-10.203	C.3	16	SER672	0.000	
62	  CA	9.400	2.821	-9.588	C.3	17	ILE673	0.000	
63	   C	7.998	3.442	-9.787	C.2	17	ILE673	0.000	
64	   O	7.263	3.033	-10.685	O.2	17	ILE673	0.000	
65	  CB	9.492	1.934	-8.294	C.3	17	ILE673	0.000	
66	 CG1	10.882	1.248	-8.171	C.3	17	ILE673	0.000	
67	 CG2	8.353	0.907	-8.223	C.3	17	ILE673	0.000	
68	 CD1	11.364	0.958	-6.730	C.3	17	ILE673	0.000	
69	   N	7.663	4.448	-8.949	N.am	18	MET674	0.000	
70	  CA	6.407	5.208	-8.934	C.3	18	MET674	0.000	
71	   C	6.109	5.915	-10.255	C.2	18	MET674	0.000	
72	   O	4.943	6.021	-10.638	O.2	18	MET674	0.000	
73	  CB	6.471	6.269	-7.835	C.3	18	MET674	0.000	
74	  CG	5.607	5.977	-6.660	C.3	18	MET674	0.000	
75	  SD	5.428	7.443	-5.624	S.3	18	MET674	0.000	
76	  CE	4.398	8.380	-6.615	C.3	18	MET674	0.000	
77	   N	7.157	6.429	-10.900	N.am	19	GLY675	0.000	
78	  CA	7.080	7.160	-12.162	C.3	19	GLY675	0.000	
79	   C	6.705	6.296	-13.345	C.3	19	GLY675	0.000	
80	 CD2	4.118	1.990	-10.085	C.2	20	PHE677	0.000	
81	 CE2	4.888	0.862	-9.760	C.2	20	PHE677	0.000	
82	  CZ	4.938	-0.211	-10.625	C.3	20	PHE677	0.000	
83	   O	-3.519	5.755	-10.520	O.3	21	HIS679	0.000	
84	   O	-1.740	6.418	-8.245	O.3	22	VAL682	0.000	
85	  CB	-0.871	3.433	-8.600	C.3	22	VAL682	0.000	
86	 CG1	0.610	3.394	-8.247	C.3	22	VAL682	0.000	
87	  CA	-0.214	7.440	-6.089	C.3	23	ILE683	0.000	
88	   C	0.574	7.950	-7.299	C.2	23	ILE683	0.000	
89	   O	1.510	7.293	-7.759	O.2	23	ILE683	0.000	
90	  CB	0.499	7.677	-4.710	C.3	23	ILE683	0.000	
91	 CG1	-0.557	7.876	-3.609	C.3	23	ILE683	0.000	
92	 CG2	1.410	8.922	-4.717	C.3	23	ILE683	0.000	
93	 CD1	-0.981	6.686	-2.940	C.3	23	ILE683	0.000	
94	 CD1	7.144	11.153	-7.721	C.3	24	LEU685	0.000	
95	   O	7.456	14.884	-3.184	O.3	25	ILE697	0.000	
96	  CB	9.471	12.644	-3.620	C.3	25	ILE697	0.000	
97	 CG2	8.351	11.723	-4.147	C.3	25	ILE697	0.000	
98	  CB	3.340	12.155	-4.455	C.3	26	THR699	0.000	
99	 CG2	4.602	11.353	-4.672	C.3	26	THR699	0.000	
100	 OG1	3.266	12.592	-3.099	O.3	26	THR699	0.000	
101	  CA	-0.521	14.109	-5.550	C.3	27	GLU700	0.000	
102	   C	-0.898	14.185	-4.067	C.2	27	GLU700	0.000	
103	   O	-0.415	13.374	-3.267	O.2	27	GLU700	0.000	
104	  CB	-1.545	13.265	-6.330	C.3	27	GLU700	0.000	
105	  CG	-1.643	11.815	-5.871	C.3	27	GLU700	0.000	
106	  CD	-2.714	10.991	-6.549	C.2	27	GLU700	0.000	
107	 OE1	-3.892	11.408	-6.528	O.co2	27	GLU700	0.000	
108	 OE2	-2.382	9.904	-7.071	O.co2	27	GLU700	0.000	
109	  CA	-2.158	15.324	-2.315	C.3	28	PHE701	0.000	
110	   C	-3.342	14.427	-1.948	C.3	28	PHE701	0.000	
111	  CB	-2.406	16.792	-1.944	C.3	28	PHE701	0.000	
112	  CG	-2.311	17.013	-0.453	C.2	28	PHE701	0.000	
113	 CD1	-1.102	16.856	0.215	C.2	28	PHE701	0.000	
114	 CD2	-3.443	17.328	0.292	C.2	28	PHE701	0.000	
115	 CE1	-1.021	17.030	1.598	C.2	28	PHE701	0.000	
116	 CE2	-3.359	17.508	1.676	C.2	28	PHE701	0.000	
117	  CZ	-2.148	17.372	2.317	C.2	28	PHE701	0.000	
118	   N	-3.258	13.829	-0.744	N.3	29	MET702	0.000	
119	  CA	-4.231	12.890	-0.190	C.3	29	MET702	0.000	
120	   C	-4.670	13.382	1.191	C.2	29	MET702	0.000	
121	   O	-4.118	12.976	2.214	O.2	29	MET702	0.000	
122	  CB	-3.638	11.462	-0.138	C.3	29	MET702	0.000	
123	  CG	-3.148	10.932	-1.485	C.3	29	MET702	0.000	
124	   N	-5.670	14.282	1.188	N.am	30	GLU703	0.000	
125	  CA	-6.266	14.976	2.343	C.3	30	GLU703	0.000	
126	   C	-6.509	14.113	3.566	C.2	30	GLU703	0.000	
127	   O	-6.369	14.604	4.685	O.2	30	GLU703	0.000	
128	  CB	-7.611	15.635	1.960	C.3	30	GLU703	0.000	
129	  CG	-7.559	16.589	0.781	C.3	30	GLU703	0.000	
130	   N	-6.926	12.851	3.358	N.am	31	ASN704	0.000	
131	  CA	-7.323	11.944	4.434	C.3	31	ASN704	0.000	
132	   C	-6.233	10.971	4.926	C.2	31	ASN704	0.000	
133	   O	-6.507	10.172	5.827	O.2	31	ASN704	0.000	
134	 OD1	-10.077	12.770	5.094	O.3	31	ASN704	0.000	
135	   N	-5.005	11.120	4.424	N.am	32	GLY705	0.000	
136	  CA	-3.849	10.313	4.827	C.3	32	GLY705	0.000	
137	   C	-3.990	8.813	4.672	C.2	32	GLY705	0.000	
138	   O	-4.682	8.339	3.761	O.2	32	GLY705	0.000	
139	   N	-3.329	8.052	5.571	N.am	33	SER706	0.000	
140	  CA	-3.327	6.580	5.574	C.3	33	SER706	0.000	
141	   C	-4.702	6.004	5.870	C.3	33	SER706	0.000	
142	  CB	-2.284	6.026	6.538	C.3	33	SER706	0.000	
143	  OG	-0.975	6.273	6.051	O.3	33	SER706	0.000	
144	  CG	-3.312	2.408	9.266	C.2	34	ASP708	0.000	
145	 OD1	-3.168	3.503	8.680	O.2	34	ASP708	0.000	
146	 OD2	-2.504	1.973	10.105	O.2	34	ASP708	0.000	
147	  CB	-4.615	6.541	10.908	C.3	35	SER709	0.000	
148	  OG	-4.222	6.952	9.610	O.3	35	SER709	0.000	
149	 NH2	-3.548	3.643	12.747	N.3	36	ARG712	0.000	
150	  CD	-7.844	10.027	12.583	C.2	37	GLN713	0.000	
151	 NE2	-7.290	11.017	13.249	N.pl3	37	GLN713	0.000	
152	 OE1	-7.596	9.847	11.389	O.2	37	GLN713	0.000	
153	   O	2.144	-4.900	-11.467	O.3	38	LEU737	0.000	
154	 CD2	1.604	-0.624	-9.117	C.3	38	LEU737	0.000	
155	   C	5.498	-7.235	-12.142	C.2	39	ASN741	0.000	
156	   O	6.586	-7.710	-11.802	O.2	39	ASN741	0.000	
157	   N	4.805	-6.352	-11.387	N.am	40	TYR742	0.000	
158	  CA	5.245	-5.800	-10.102	C.3	40	TYR742	0.000	
159	   C	4.642	-6.531	-8.895	C.2	40	TYR742	0.000	
160	   O	3.429	-6.742	-8.853	O.2	40	TYR742	0.000	
161	  CB	4.920	-4.287	-10.022	C.3	40	TYR742	0.000	
162	  CG	5.484	-3.597	-8.801	C.2	40	TYR742	0.000	
163	 CD1	6.847	-3.309	-8.701	C.2	40	TYR742	0.000	
164	 CD2	4.663	-3.232	-7.739	C.2	40	TYR742	0.000	
165	 CE1	7.376	-2.692	-7.567	C.2	40	TYR742	0.000	
166	 CE2	5.178	-2.604	-6.605	C.2	40	TYR742	0.000	
167	  CZ	6.537	-2.338	-6.521	C.2	40	TYR742	0.000	
168	  OH	7.048	-1.739	-5.389	O.3	40	TYR742	0.000	
169	   N	5.498	-6.886	-7.912	N.am	41	VAL743	0.000	
170	  CA	5.098	-7.499	-6.640	C.3	41	VAL743	0.000	
171	   O	6.503	-6.052	-5.358	O.3	41	VAL743	0.000	
172	 CD2	2.955	-1.784	-3.222	C.3	42	HIS744	0.000	
173	 NE2	3.025	-1.011	-2.084	N.3	42	HIS744	0.000	
174	  CG	5.648	-2.736	3.061	C.2	43	ASP746	0.000	
175	 OD1	4.996	-3.142	4.054	O.2	43	ASP746	0.000	
176	 OD2	6.621	-1.964	3.154	O.2	43	ASP746	0.000	
177	  CA	-1.120	1.952	6.370	C.3	44	ARG750	0.000	
178	   C	-0.340	2.429	5.135	C.2	44	ARG750	0.000	
179	   O	0.215	3.528	5.138	O.2	44	ARG750	0.000	
180	  CB	-0.172	1.547	7.528	C.3	44	ARG750	0.000	
181	  NE	2.991	-0.602	7.752	N.3	44	ARG750	0.000	
182	  CZ	3.063	-1.884	7.397	C.3	44	ARG750	0.000	
183	 NH2	4.189	-2.380	6.903	N.3	44	ARG750	0.000	
184	  CA	0.359	1.803	2.807	C.3	45	ASN751	0.000	
185	  CB	1.142	0.547	2.393	C.3	45	ASN751	0.000	
186	  CG	2.280	0.241	3.329	C.2	45	ASN751	0.000	
187	 OD1	3.105	1.095	3.639	O.2	45	ASN751	0.000	
188	  CB	-2.656	7.578	0.305	C.3	46	LEU753	0.000	
189	  CG	-1.171	7.483	0.726	C.3	46	LEU753	0.000	
190	 CD1	-0.368	8.639	0.129	C.3	46	LEU753	0.000	
191	 CD2	-0.991	7.484	2.252	C.3	46	LEU753	0.000	
192	   C	-0.318	3.074	-3.240	C.2	47	VAL762	0.000	
193	   O	-0.061	3.816	-4.190	O.2	47	VAL762	0.000	
194	 CG1	-0.035	0.113	-3.711	C.3	47	VAL762	0.000	
195	   N	0.414	3.036	-2.113	N.am	48	SER763	0.000	
196	  CA	1.648	3.803	-1.912	C.3	48	SER763	0.000	
197	   C	2.769	2.860	-1.435	C.2	48	SER763	0.000	
198	   O	2.545	1.647	-1.349	O.2	48	SER763	0.000	
199	  CB	1.438	4.932	-0.904	C.3	48	SER763	0.000	
200	  OG	2.522	5.843	-0.996	O.3	48	SER763	0.000	
201	   N	3.959	3.433	-1.124	N.am	49	ASP764	0.000	
202	  CA	5.178	2.781	-0.642	C.3	49	ASP764	0.000	
203	   C	5.744	1.758	-1.651	C.2	49	ASP764	0.000	
204	   O	5.503	0.552	-1.543	O.2	49	ASP764	0.000	
205	  CB	4.989	2.177	0.768	C.3	49	ASP764	0.000	
206	  CG	6.280	1.690	1.394	C.2	49	ASP764	0.000	
207	 OD1	7.228	2.506	1.521	O.co2	49	ASP764	0.000	
208	 OD2	6.356	0.494	1.737	O.co2	49	ASP764	0.000	
209	   N	6.529	2.256	-2.614	N.am	50	PHE765	0.000	
210	  CA	7.142	1.439	-3.668	C.3	50	PHE765	0.000	
211	   C	8.661	1.329	-3.545	C.2	50	PHE765	0.000	
212	   O	9.211	1.436	-2.450	O.2	50	PHE765	0.000	
213	  CB	6.747	1.983	-5.050	C.3	50	PHE765	0.000	
214	  CG	5.259	1.966	-5.306	C.2	50	PHE765	0.000	
215	 CD1	4.641	0.835	-5.823	C.2	50	PHE765	0.000	
216	 CD2	4.475	3.074	-5.013	C.2	50	PHE765	0.000	
217	 CE1	3.266	0.815	-6.049	C.2	50	PHE765	0.000	
218	 CE2	3.099	3.056	-5.247	C.2	50	PHE765	0.000	
219	  CZ	2.503	1.922	-5.752	C.2	50	PHE765	0.000	
@<TRIPOS>BOND
1 1 2 1
2 1 4 1
3 2 3 2
4 2 5 1
5 5 6 1
6 6 7 1
7 6 9 1
8 7 8 2
9 7 12 1
10 9 10 1
11 10 11 1
12 14 15 1
13 14 17 1
14 15 16 2
15 17 18 1
16 17 19 1
17 18 20 1
18 21 22 1
19 22 23 1
20 23 24 1
21 24 25 1
22 25 26 2
23 26 27 1
24 29 30 1
25 29 31 1
26 38 39 2
27 38 40 1
28 40 41 1
29 41 42 1
30 41 44 1
31 42 43 2
32 42 46 1
33 44 45 1
34 46 47 1
35 47 48 1
36 47 50 1
37 48 49 2
38 48 55 1
39 50 51 1
40 51 52 1
41 52 53 2
42 52 54 1
43 55 56 1
44 56 57 1
45 56 59 1
46 57 58 2
47 57 60 1
48 60 61 1
49 62 63 1
50 62 65 1
51 63 64 2
52 63 69 1
53 65 66 1
54 65 67 1
55 66 68 1
56 69 70 1
57 70 71 1
58 70 73 1
59 71 72 2
60 71 77 1
61 73 74 1
62 74 75 1
63 75 76 1
64 77 78 1
65 78 79 1
66 80 81 2
67 81 82 1
68 85 86 1
69 87 88 1
70 87 90 1
71 88 89 2
72 90 91 1
73 90 92 1
74 91 93 1
75 96 97 1
76 98 99 1
77 98 100 1
78 101 102 1
79 101 104 1
80 102 103 2
81 104 105 1
82 105 106 1
83 106 107 2
84 106 108 1
85 109 110 1
86 109 111 1
87 110 118 1
88 111 112 1
89 112 113 2
90 112 114 1
91 113 115 1
92 114 116 2
93 115 117 2
94 116 117 1
95 118 119 1
96 119 120 1
97 119 122 1
98 120 121 2
99 120 124 1
100 122 123 1
101 124 125 1
102 125 126 1
103 125 128 1
104 126 127 2
105 126 130 1
106 128 129 1
107 130 131 1
108 131 132 1
109 132 133 2
110 132 135 1
111 135 136 1
112 136 137 1
113 137 138 2
114 137 139 1
115 139 140 1
116 140 141 1
117 140 142 1
118 142 143 1
119 144 145 2
120 144 146 1
121 147 148 1
122 150 151 1
123 150 152 2
124 155 156 2
125 155 157 1
126 157 158 1
127 158 159 1
128 158 161 1
129 159 160 2
130 159 169 1
131 161 162 1
132 162 163 2
133 162 164 1
134 163 165 1
135 164 166 2
136 165 167 2
137 166 167 1
138 167 168 1
139 169 170 1
140 172 173 1
141 174 175 2
142 174 176 1
143 177 178 1
144 177 180 1
145 178 179 2
146 181 182 1
147 182 183 1
148 184 185 1
149 185 186 1
150 186 187 2
151 188 189 1
152 189 190 1
153 189 191 1
154 192 193 2
155 192 195 1
156 195 196 1
157 196 197 1
158 196 199 1
159 197 198 2
160 197 201 1
161 199 200 1
162 201 202 1
163 202 203 1
164 202 205 1
165 203 204 2
166 203 209 1
167 205 206 1
168 206 207 2
169 206 208 1
170 209 210 1
171 210 211 1
172 210 213 1
173 211 212 2
174 213 214 1
175 214 215 2
176 214 216 1
177 215 217 1
178 216 218 2
179 217 219 2
180 218 219 1
@<TRIPOS>SUBSTRUCTURE
1	GLU624	1	RESIDUE	1 A	GLU
2	GLN625	5	RESIDUE	1 A	GLN
3	VAL626	12	RESIDUE	1 A	VAL
4	ILE627	14	RESIDUE	1 A	ILE
5	PHE632	21	RESIDUE	1 A	PHE
6	GLY633	28	RESIDUE	1 A	GLY
7	VAL635	29	RESIDUE	1 A	VAL
8	SER637	32	RESIDUE	1 A	SER
9	ALA651	34	RESIDUE	1 A	ALA
10	ASP666	36	RESIDUE	1 A	ASP
11	PHE667	37	RESIDUE	1 A	PHE
12	LEU668	38	RESIDUE	1 A	LEU
13	SER669	40	RESIDUE	1 A	SER
14	GLU670	46	RESIDUE	1 A	GLU
15	ALA671	55	RESIDUE	1 A	ALA
16	SER672	60	RESIDUE	1 A	SER
17	ILE673	62	RESIDUE	1 A	ILE
18	MET674	69	RESIDUE	1 A	MET
19	GLY675	77	RESIDUE	1 A	GLY
20	PHE677	80	RESIDUE	1 A	PHE
21	HIS679	83	RESIDUE	1 A	HIS
22	VAL682	84	RESIDUE	1 A	VAL
23	ILE683	87	RESIDUE	1 A	ILE
24	LEU685	94	RESIDUE	1 A	LEU
25	ILE697	95	RESIDUE	1 A	ILE
26	THR699	98	RESIDUE	1 A	THR
27	GLU700	101	RESIDUE	1 A	GLU
28	PHE701	109	RESIDUE	1 A	PHE
29	MET702	118	RESIDUE	1 A	MET
30	GLU703	124	RESIDUE	1 A	GLU
31	ASN704	130	RESIDUE	1 A	ASN
32	GLY705	135	RESIDUE	1 A	GLY
33	SER706	139	RESIDUE	1 A	SER
34	ASP708	144	RESIDUE	1 A	ASP
35	SER709	147	RESIDUE	1 A	SER
36	ARG712	149	RESIDUE	1 A	ARG
37	GLN713	150	RESIDUE	1 A	GLN
38	LEU737	153	RESIDUE	1 A	LEU
39	ASN741	155	RESIDUE	1 A	ASN
40	TYR742	157	RESIDUE	1 A	TYR
41	VAL743	169	RESIDUE	1 A	VAL
42	HIS744	172	RESIDUE	1 A	HIS
43	ASP746	174	RESIDUE	1 A	ASP
44	ARG750	177	RESIDUE	1 A	ARG
45	ASN751	184	RESIDUE	1 A	ASN
46	LEU753	188	RESIDUE	1 A	LEU
47	VAL762	192	RESIDUE	1 A	VAL
48	SER763	195	RESIDUE	1 A	SER
49	ASP764	201	RESIDUE	1 A	ASP
50	PHE765	209	RESIDUE	1 A	PHE
