# created with PyMOL 2.5.4
@<TRIPOS>MOLECULE
4AAA_A_aligned_pocket
256 217 54              
SMALL
USER_CHARGES
@<TRIPOS>ATOM
1	   N	4.333	22.778	4.956	N.3	1	LEU7	0.000	
2	  CA	3.162	22.874	5.789	C.3	1	LEU7	0.000	
3	   C	3.156	21.932	6.992	C.2	1	LEU7	0.000	
4	   O	2.427	22.164	7.936	O.2	1	LEU7	0.000	
5	  CB	1.882	22.573	4.945	C.3	1	LEU7	0.000	
6	  CG	1.800	23.410	3.695	C.3	1	LEU7	0.000	
7	 CD1	0.488	23.033	2.981	C.3	1	LEU7	0.000	
8	 CD2	1.834	24.916	3.924	C.3	1	LEU7	0.000	
9	   N	3.915	20.829	6.950	N.am	2	GLY8	0.000	
10	   O	2.753	15.432	8.342	O.3	3	LEU9	0.000	
11	   N	3.673	14.825	6.410	N.3	4	VAL10	0.000	
12	  CA	2.583	13.866	6.169	C.3	4	VAL10	0.000	
13	   C	2.427	12.798	7.281	C.2	4	VAL10	0.000	
14	   O	3.373	12.084	7.611	O.2	4	VAL10	0.000	
15	  CB	2.792	13.203	4.824	C.3	4	VAL10	0.000	
16	 CG1	1.684	12.132	4.599	C.3	4	VAL10	0.000	
17	 CG2	2.861	14.280	3.733	C.3	4	VAL10	0.000	
18	   N	1.272	12.743	7.935	N.am	5	GLY11	0.000	
19	  CA	1.086	11.828	9.074	C.3	5	GLY11	0.000	
20	   C	1.770	12.185	10.403	C.2	5	GLY11	0.000	
21	   O	1.855	11.356	11.307	O.2	5	GLY11	0.000	
22	   N	2.263	13.419	10.534	N.am	6	GLU12	0.000	
23	  CA	2.754	13.920	11.815	C.3	6	GLU12	0.000	
24	   C	3.829	13.009	12.426	C.2	6	GLU12	0.000	
25	   O	3.866	12.808	13.655	O.2	6	GLU12	0.000	
26	  CB	1.593	14.085	12.812	C.3	6	GLU12	0.000	
27	  CG	0.580	15.150	12.415	C.3	6	GLU12	0.000	
28	  CD	-0.490	14.644	11.489	C.2	6	GLU12	0.000	
29	 OE1	-1.005	13.550	11.729	O.co2	6	GLU12	0.000	
30	 OE2	-0.833	15.358	10.542	O.co2	6	GLU12	0.000	
31	   N	4.710	12.524	11.548	N.am	7	GLY13	0.000	
32	  CA	5.836	11.657	11.912	C.3	7	GLY13	0.000	
33	   C	5.675	10.192	11.616	C.3	7	GLY13	0.000	
34	   N	4.435	9.716	11.448	N.3	8	SER14	0.000	
35	  CA	4.247	8.295	11.341	C.3	8	SER14	0.000	
36	   C	4.811	7.750	10.019	C.2	8	SER14	0.000	
37	   O	5.002	6.540	9.888	O.2	8	SER14	0.000	
38	  CB	2.753	7.945	11.542	C.3	8	SER14	0.000	
39	  OG	2.025	8.315	10.429	O.3	8	SER14	0.000	
40	   N	5.126	8.636	9.054	N.am	9	TYR15	0.000	
41	  CA	5.780	8.231	7.828	C.3	9	TYR15	0.000	
42	   C	7.232	8.669	7.694	C.2	9	TYR15	0.000	
43	   O	7.843	8.576	6.639	O.2	9	TYR15	0.000	
44	  CB	5.003	8.757	6.590	C.3	9	TYR15	0.000	
45	  CG	3.571	8.278	6.441	C.2	9	TYR15	0.000	
46	 CD1	2.514	8.871	7.160	C.2	9	TYR15	0.000	
47	 CD2	3.277	7.261	5.619	C.2	9	TYR15	0.000	
48	 CE1	1.212	8.426	7.038	C.2	9	TYR15	0.000	
49	 CE2	1.972	6.843	5.431	C.2	9	TYR15	0.000	
50	  CZ	0.929	7.444	6.098	C.2	9	TYR15	0.000	
51	  OH	-0.338	6.981	5.901	O.3	9	TYR15	0.000	
52	   N	7.821	9.180	8.773	N.am	10	GLY16	0.000	
53	  CA	9.134	9.781	8.651	C.3	10	GLY16	0.000	
54	   C	9.152	11.126	7.907	C.2	10	GLY16	0.000	
55	   O	8.183	11.886	7.976	O.2	10	GLY16	0.000	
56	  CB	6.749	11.977	3.788	C.3	11	VAL18	0.000	
57	 CG1	5.887	12.334	2.563	C.3	11	VAL18	0.000	
58	 CG2	7.456	10.613	3.594	C.3	11	VAL18	0.000	
59	  CD	-0.148	18.528	4.252	C.3	12	LYS20	0.000	
60	  CE	-1.472	18.947	3.598	C.3	12	LYS20	0.000	
61	  NZ	-2.619	18.984	4.564	N.4	12	LYS20	0.000	
62	 CG2	-0.849	19.784	-0.010	C.3	13	ILE29	0.000	
63	  CA	4.042	15.138	-0.743	C.3	14	ALA31	0.000	
64	   C	5.431	14.967	-1.364	C.2	14	ALA31	0.000	
65	   O	5.554	14.555	-2.517	O.2	14	ALA31	0.000	
66	  CB	3.373	13.821	-0.476	C.3	14	ALA31	0.000	
67	   N	6.481	15.283	-0.592	N.am	15	ILE32	0.000	
68	  CB	9.557	11.031	-0.064	C.3	16	LYS33	0.000	
69	  CG	10.118	10.073	0.995	C.3	16	LYS33	0.000	
70	   O	13.622	9.806	-0.589	O.3	17	LYS34	0.000	
71	 CD1	13.498	7.504	-4.899	C.3	18	PHE35	0.000	
72	 CE1	13.361	6.384	-5.681	C.2	18	PHE35	0.000	
73	  CZ	13.874	6.394	-6.951	C.2	18	PHE35	0.000	
74	 NH1	14.495	-1.369	-11.963	N.4	19	ARG50	0.000	
75	  CB	13.234	3.467	-9.504	C.3	20	GLU51	0.000	
76	  CB	13.171	3.430	-9.513	C.3	20	GLU51	0.000	
77	  CG	13.886	2.149	-9.110	C.3	20	GLU51	0.000	
78	  CG	13.950	2.196	-9.067	C.3	20	GLU51	0.000	
79	  CD	14.235	2.040	-7.636	C.2	20	GLU51	0.000	
80	  CD	13.510	0.902	-9.742	C.2	20	GLU51	0.000	
81	 OE1	14.179	3.062	-6.915	O.co2	20	GLU51	0.000	
82	 OE1	12.492	0.904	-10.471	O.co2	20	GLU51	0.000	
83	 OE2	14.556	0.909	-7.210	O.co2	20	GLU51	0.000	
84	 OE2	14.194	-0.125	-9.540	O.co2	20	GLU51	0.000	
85	  CG	8.344	0.990	-12.946	C.3	21	LEU54	0.000	
86	 CD2	8.910	-0.007	-11.932	C.3	21	LEU54	0.000	
87	  CA	7.098	5.617	-12.113	C.3	22	LEU55	0.000	
88	   C	6.392	6.512	-13.109	C.3	22	LEU55	0.000	
89	  CB	7.628	6.439	-10.934	C.3	22	LEU55	0.000	
90	  CG	7.970	5.647	-9.673	C.3	22	LEU55	0.000	
91	 CD1	8.694	6.543	-8.684	C.3	22	LEU55	0.000	
92	 CD2	6.700	5.099	-9.049	C.3	22	LEU55	0.000	
93	   O	-3.652	6.040	-11.568	O.3	23	HIS60	0.000	
94	   C	-1.736	6.424	-8.033	C.2	24	LEU63	0.000	
95	   O	-2.106	7.283	-8.851	O.2	24	LEU63	0.000	
96	 CD2	-1.031	2.045	-8.386	C.3	24	LEU63	0.000	
97	  CA	-0.537	8.046	-6.687	C.3	25	VAL64	0.000	
98	   O	1.082	7.911	-8.458	O.3	25	VAL64	0.000	
99	  CB	0.258	8.142	-5.374	C.3	25	VAL64	0.000	
100	 CG1	1.619	7.503	-5.502	C.3	25	VAL64	0.000	
101	 CG2	0.328	9.595	-4.874	C.3	25	VAL64	0.000	
102	   O	8.891	13.727	-3.839	O.3	26	LEU78	0.000	
103	 CD1	10.342	8.969	-5.971	C.3	26	LEU78	0.000	
104	   N	4.986	14.016	-5.252	N.3	27	PHE80	0.000	
105	  CB	3.583	12.101	-4.721	C.3	27	PHE80	0.000	
106	  CG	4.587	11.050	-5.021	C.2	27	PHE80	0.000	
107	 CD1	4.340	10.125	-6.045	C.2	27	PHE80	0.000	
108	 CD2	5.760	10.972	-4.291	C.2	27	PHE80	0.000	
109	 CE1	5.312	9.161	-6.360	C.2	27	PHE80	0.000	
110	 CE2	6.684	9.965	-4.582	C.2	27	PHE80	0.000	
111	  CZ	6.461	9.103	-5.626	C.2	27	PHE80	0.000	
112	   O	-0.140	13.248	-3.938	O.3	28	GLU81	0.000	
113	  CG	-1.283	12.734	-6.390	C.3	28	GLU81	0.000	
114	  CD	-2.493	12.238	-7.181	C.2	28	GLU81	0.000	
115	 OE1	-3.494	12.949	-7.288	O.co2	28	GLU81	0.000	
116	 OE2	-2.491	11.090	-7.636	O.co2	28	GLU81	0.000	
117	  CA	-1.047	15.063	-2.140	C.3	29	PHE82	0.000	
118	   C	-2.480	14.597	-2.215	C.3	29	PHE82	0.000	
119	  CB	-0.969	16.326	-1.218	C.3	29	PHE82	0.000	
120	  CG	-1.453	16.035	0.192	C.2	29	PHE82	0.000	
121	 CD1	-0.609	15.398	1.093	C.2	29	PHE82	0.000	
122	 CD2	-2.709	16.421	0.598	C.2	29	PHE82	0.000	
123	 CE1	-1.056	15.097	2.393	C.2	29	PHE82	0.000	
124	 CE2	-3.141	16.164	1.910	C.2	29	PHE82	0.000	
125	  CZ	-2.322	15.493	2.768	C.2	29	PHE82	0.000	
126	   N	-2.778	13.507	-1.491	N.3	30	VAL83	0.000	
127	  CA	-4.099	12.889	-1.493	C.3	30	VAL83	0.000	
128	   C	-4.672	13.189	-0.114	C.2	30	VAL83	0.000	
129	   O	-3.988	13.084	0.897	O.2	30	VAL83	0.000	
130	  CB	-4.020	11.412	-1.791	C.3	30	VAL83	0.000	
131	 CG2	-3.244	11.146	-3.092	C.3	30	VAL83	0.000	
132	  CA	-6.416	14.134	1.193	C.3	31	ASP84	0.000	
133	   C	-6.432	13.219	2.450	C.2	31	ASP84	0.000	
134	   O	-6.139	13.742	3.535	O.2	31	ASP84	0.000	
135	  CB	-7.711	14.951	1.024	C.3	31	ASP84	0.000	
136	  CG	-7.448	16.465	0.913	C.3	31	ASP84	0.000	
137	  CG	-8.933	14.696	1.772	C.2	31	ASP84	0.000	
138	 OD1	-8.884	15.942	1.838	O.2	31	ASP84	0.000	
139	   N	-6.723	11.939	2.342	N.am	32	HIS85	0.000	
140	  CB	-8.017	11.124	4.332	C.3	32	HIS85	0.000	
141	  CG	-9.104	12.382	4.091	C.2	32	HIS85	0.000	
142	 CD2	-9.105	13.099	5.296	C.2	32	HIS85	0.000	
143	 CE1	-10.211	14.314	3.839	C.3	32	HIS85	0.000	
144	 NE2	-9.833	14.271	5.097	N.pl3	32	HIS85	0.000	
145	  CB	-4.874	6.891	4.753	C.3	33	THR86	0.000	
146	 CG2	-3.725	7.827	4.535	C.3	33	THR86	0.000	
147	 CD1	-3.603	3.622	9.219	C.3	34	LEU88	0.000	
148	  CA	-8.961	8.199	8.670	C.3	35	ASP89	0.000	
149	  CB	-8.670	9.392	7.725	C.3	35	ASP89	0.000	
150	  CG	-7.223	9.910	7.878	C.2	35	ASP89	0.000	
151	 OD1	-6.820	10.241	8.995	O.co2	35	ASP89	0.000	
152	 OD2	-6.428	9.942	6.921	O.co2	35	ASP89	0.000	
153	   C	5.232	-6.857	-12.414	C.2	36	ASN121	0.000	
154	   O	6.432	-7.038	-12.094	O.2	36	ASN121	0.000	
155	   N	4.425	-5.974	-11.827	N.am	37	ILE122	0.000	
156	  CA	4.817	-5.167	-10.675	C.3	37	ILE122	0.000	
157	  CA	4.798	-5.158	-10.665	C.3	37	ILE122	0.000	
158	   C	4.038	-5.628	-9.446	C.3	37	ILE122	0.000	
159	   O	2.806	-5.633	-9.463	O.2	37	ILE122	0.000	
160	  CB	4.575	-3.671	-10.947	C.3	37	ILE122	0.000	
161	  CB	4.498	-3.665	-10.875	C.3	37	ILE122	0.000	
162	 CG1	5.479	-3.211	-12.096	C.3	37	ILE122	0.000	
163	 CG1	5.172	-3.176	-12.153	C.3	37	ILE122	0.000	
164	 CG2	4.845	-2.853	-9.693	C.3	37	ILE122	0.000	
165	 CG2	4.971	-2.873	-9.663	C.3	37	ILE122	0.000	
166	 CD1	4.956	-2.012	-12.853	C.3	37	ILE122	0.000	
167	 CD1	6.671	-3.382	-12.153	C.3	37	ILE122	0.000	
168	   N	4.764	-6.045	-8.414	N.3	38	ILE123	0.000	
169	  CA	4.176	-6.500	-7.114	C.3	38	ILE123	0.000	
170	   C	4.321	-5.312	-6.167	C.2	38	ILE123	0.000	
171	   O	5.336	-4.598	-6.204	O.2	38	ILE123	0.000	
172	  CB	4.900	-7.734	-6.561	C.3	38	ILE123	0.000	
173	 CG1	4.597	-8.932	-7.506	C.3	38	ILE123	0.000	
174	  CA	3.465	-3.982	-4.343	C.3	39	HIS124	0.000	
175	 CD2	1.653	-1.100	-3.028	C.3	39	HIS124	0.000	
176	 NE2	2.011	-0.425	-1.924	N.3	39	HIS124	0.000	
177	  CG	6.454	-3.531	1.582	C.2	40	ASP126	0.000	
178	  CG	5.276	-2.838	3.124	C.3	40	ASP126	0.000	
179	 OD1	6.578	-4.384	2.503	O.2	40	ASP126	0.000	
180	 OD2	7.409	-3.194	0.850	O.2	40	ASP126	0.000	
181	 OD2	6.076	-1.957	3.499	 O	40	ASP126	0.000	
182	  CE	3.296	-0.141	5.450	C.3	41	LYS128	0.000	
183	  NZ	4.611	-0.468	6.062	N.4	41	LYS128	0.000	
184	  CA	-1.427	3.510	5.837	C.3	42	GLU130	0.000	
185	   C	-0.973	3.893	4.445	C.2	42	GLU130	0.000	
186	   O	-0.754	5.089	4.219	O.2	42	GLU130	0.000	
187	  CB	-0.238	3.578	6.789	C.3	42	GLU130	0.000	
188	  CG	0.890	2.684	6.371	C.3	42	GLU130	0.000	
189	  CD	1.844	2.458	7.541	C.2	42	GLU130	0.000	
190	 OE1	1.499	1.679	8.467	O.co2	42	GLU130	0.000	
191	 OE2	2.907	3.100	7.538	O.co2	42	GLU130	0.000	
192	   N	-0.903	2.954	3.503	N.am	43	ASN131	0.000	
193	  CA	-0.575	3.354	2.121	C.3	43	ASN131	0.000	
194	  CB	0.705	2.683	1.580	C.3	43	ASN131	0.000	
195	 ND2	1.883	0.612	2.143	N.3	43	ASN131	0.000	
196	  CG	-2.330	7.460	-0.229	C.3	44	LEU133	0.000	
197	 CD1	-1.495	8.396	-1.069	C.3	44	LEU133	0.000	
198	 CD2	-1.982	7.585	1.250	C.3	44	LEU133	0.000	
199	   C	-0.662	3.935	-4.001	C.2	45	LEU142	0.000	
200	   O	-0.360	4.614	-4.965	O.2	45	LEU142	0.000	
201	   N	0.197	3.637	-3.038	N.am	46	CYS143	0.000	
202	  CA	1.527	4.201	-2.997	C.3	46	CYS143	0.000	
203	   C	2.523	3.336	-2.222	C.2	46	CYS143	0.000	
204	   O	2.129	2.340	-1.604	O.2	46	CYS143	0.000	
205	  CB	1.465	5.594	-2.409	C.3	46	CYS143	0.000	
206	  SG	1.179	5.671	-0.663	S.3	46	CYS143	0.000	
207	   N	3.790	3.769	-2.260	N.am	47	ASP144	0.000	
208	  CA	4.872	3.166	-1.494	C.3	47	ASP144	0.000	
209	   C	5.130	1.712	-1.876	C.3	47	ASP144	0.000	
210	  CB	4.654	3.311	-0.026	C.3	47	ASP144	0.000	
211	  CG	5.977	3.153	0.769	C.2	47	ASP144	0.000	
212	 OD1	7.037	3.492	0.205	O.co2	47	ASP144	0.000	
213	 OD2	5.884	2.759	1.900	O.co2	47	ASP144	0.000	
214	   N	5.143	1.470	-3.182	N.3	48	PHE145	0.000	
215	  CA	5.467	0.144	-3.737	C.3	48	PHE145	0.000	
216	   C	6.851	-0.336	-3.289	C.2	48	PHE145	0.000	
217	   O	7.771	0.465	-3.158	O.2	48	PHE145	0.000	
218	  CB	5.370	0.190	-5.287	C.3	48	PHE145	0.000	
219	  CG	3.945	0.155	-5.777	C.2	48	PHE145	0.000	
220	 CD1	3.106	1.227	-5.550	C.2	48	PHE145	0.000	
221	 CD2	3.415	-0.980	-6.379	C.2	48	PHE145	0.000	
222	 CE1	1.776	1.179	-5.911	C.2	48	PHE145	0.000	
223	 CE2	2.095	-1.033	-6.765	C.2	48	PHE145	0.000	
224	  CZ	1.260	0.046	-6.522	C.2	48	PHE145	0.000	
225	   N	6.996	-1.639	-3.074	N.am	49	GLY146	0.000	
226	  CA	8.278	-2.207	-2.604	C.3	49	GLY146	0.000	
227	   C	9.447	-2.143	-3.597	C.2	49	GLY146	0.000	
228	   O	10.368	-2.951	-3.508	O.2	49	GLY146	0.000	
229	   N	9.417	-1.191	-4.534	N.am	50	PHE147	0.000	
230	  CA	10.552	-0.926	-5.430	C.3	50	PHE147	0.000	
231	   C	11.124	0.511	-5.353	C.2	50	PHE147	0.000	
232	   O	12.095	0.813	-6.046	O.2	50	PHE147	0.000	
233	  CB	10.196	-1.299	-6.889	C.3	50	PHE147	0.000	
234	  CG	9.208	-0.366	-7.559	C.2	50	PHE147	0.000	
235	 CD1	9.613	0.876	-8.060	C.2	50	PHE147	0.000	
236	 CD2	7.885	-0.749	-7.735	C.2	50	PHE147	0.000	
237	 CE1	8.712	1.726	-8.684	C.2	50	PHE147	0.000	
238	 CE2	6.982	0.098	-8.361	C.2	50	PHE147	0.000	
239	  CZ	7.395	1.339	-8.832	C.2	50	PHE147	0.000	
240	   N	10.550	1.388	-4.525	N.am	51	ALA148	0.000	
241	  CA	11.042	2.773	-4.409	C.3	51	ALA148	0.000	
242	   C	11.102	3.243	-2.956	C.2	51	ALA148	0.000	
243	   O	11.193	2.434	-2.027	O.2	51	ALA148	0.000	
244	  CB	10.176	3.715	-5.239	C.3	51	ALA148	0.000	
245	   C	8.627	-2.123	12.478	C.2	52	VAL162	0.000	
246	   O	7.505	-1.731	12.832	O.2	52	VAL162	0.000	
247	   N	8.914	-2.436	11.209	N.am	53	ALA163	0.000	
248	  CA	7.900	-2.375	10.145	C.3	53	ALA163	0.000	
249	   C	6.808	-3.388	10.450	C.2	53	ALA163	0.000	
250	   O	7.081	-4.482	10.925	O.2	53	ALA163	0.000	
251	  CB	8.512	-2.662	8.779	C.3	53	ALA163	0.000	
252	   N	5.570	-3.013	10.161	N.am	54	THR164	0.000	
253	  CA	4.420	-3.830	10.521	C.3	54	THR164	0.000	
254	   C	4.389	-5.089	9.662	C.3	54	THR164	0.000	
255	  CB	3.133	-3.033	10.326	C.3	54	THR164	0.000	
256	 OG1	3.255	-1.815	11.084	O.3	54	THR164	0.000	
@<TRIPOS>BOND
1 1 2 1
2 2 3 1
3 2 5 1
4 3 4 2
5 3 9 1
6 5 6 1
7 6 7 1
8 6 8 1
9 11 12 1
10 12 13 1
11 12 15 1
12 13 14 2
13 13 18 1
14 15 16 1
15 15 17 1
16 18 19 1
17 19 20 1
18 20 21 2
19 20 22 1
20 22 23 1
21 23 24 1
22 23 26 1
23 24 25 2
24 24 31 1
25 26 27 1
26 27 28 1
27 28 29 2
28 28 30 1
29 31 32 1
30 32 33 1
31 33 34 1
32 34 35 1
33 35 36 1
34 35 38 1
35 36 37 2
36 36 40 1
37 38 39 1
38 40 41 1
39 41 42 1
40 41 44 1
41 42 43 2
42 42 52 1
43 44 45 1
44 45 46 2
45 45 47 1
46 46 48 1
47 47 49 2
48 48 50 2
49 49 50 1
50 50 51 1
51 52 53 1
52 53 54 1
53 54 55 2
54 56 57 1
55 56 58 1
56 59 60 1
57 60 61 1
58 63 64 1
59 63 66 1
60 64 65 2
61 64 67 1
62 68 69 1
63 71 72 1
64 72 73 2
65 75 77 1
66 76 78 1
67 77 79 1
68 78 80 1
69 79 81 2
70 79 83 1
71 80 82 2
72 80 84 1
73 85 86 1
74 87 88 1
75 87 89 1
76 89 90 1
77 90 91 1
78 90 92 1
79 94 95 2
80 97 99 1
81 99 100 1
82 99 101 1
83 105 106 1
84 106 107 2
85 106 108 1
86 107 109 1
87 108 110 2
88 109 111 2
89 110 111 1
90 113 114 1
91 114 115 2
92 114 116 1
93 117 118 1
94 117 119 1
95 118 126 1
96 119 120 1
97 120 121 2
98 120 122 1
99 121 123 1
100 122 124 2
101 123 125 2
102 124 125 1
103 126 127 1
104 127 128 1
105 127 130 1
106 128 129 2
107 130 131 1
108 132 133 1
109 132 135 1
110 133 134 2
111 133 139 1
112 135 136 1
113 137 138 2
114 141 142 2
115 142 144 1
116 143 144 1
117 145 146 1
118 148 149 1
119 149 150 1
120 150 151 2
121 150 152 1
122 153 154 2
123 153 155 1
124 155 156 1
125 155 157 1
126 156 158 1
127 156 160 1
128 157 158 1
129 157 161 1
130 158 159 2
131 158 168 1
132 160 162 1
133 160 164 1
134 161 163 1
135 161 165 1
136 162 166 1
137 163 167 1
138 168 169 1
139 169 170 1
140 169 172 1
141 170 171 2
142 172 173 1
143 175 176 1
144 177 179 2
145 177 180 1
146 178 181 1
147 182 183 1
148 184 185 1
149 184 187 1
150 185 186 2
151 185 192 1
152 187 188 1
153 188 189 1
154 189 190 2
155 189 191 1
156 192 193 1
157 193 194 1
158 196 197 1
159 196 198 1
160 199 200 2
161 199 201 1
162 201 202 1
163 202 203 1
164 202 205 1
165 203 204 2
166 203 207 1
167 205 206 1
168 207 208 1
169 208 209 1
170 208 210 1
171 209 214 1
172 210 211 1
173 211 212 2
174 211 213 1
175 214 215 1
176 215 216 1
177 215 218 1
178 216 217 2
179 216 225 1
180 218 219 1
181 219 220 2
182 219 221 1
183 220 222 1
184 221 223 2
185 222 224 2
186 223 224 1
187 225 226 1
188 226 227 1
189 227 228 2
190 227 229 1
191 229 230 1
192 230 231 1
193 230 233 1
194 231 232 2
195 231 240 1
196 233 234 1
197 234 235 2
198 234 236 1
199 235 237 1
200 236 238 2
201 237 239 2
202 238 239 1
203 240 241 1
204 241 242 1
205 241 244 1
206 242 243 2
207 245 246 2
208 245 247 1
209 247 248 1
210 248 249 1
211 248 251 1
212 249 250 2
213 249 252 1
214 252 253 1
215 253 254 1
216 253 255 1
217 255 256 1
@<TRIPOS>SUBSTRUCTURE
1	LEU7	1	RESIDUE	1 A	LEU
2	GLY8	9	RESIDUE	1 A	GLY
3	LEU9	10	RESIDUE	1 A	LEU
4	VAL10	11	RESIDUE	1 A	VAL
5	GLY11	18	RESIDUE	1 A	GLY
6	GLU12	22	RESIDUE	1 A	GLU
7	GLY13	31	RESIDUE	1 A	GLY
8	SER14	34	RESIDUE	1 A	SER
9	TYR15	40	RESIDUE	1 A	TYR
10	GLY16	52	RESIDUE	1 A	GLY
11	VAL18	56	RESIDUE	1 A	VAL
12	LYS20	59	RESIDUE	1 A	LYS
13	ILE29	62	RESIDUE	1 A	ILE
14	ALA31	63	RESIDUE	1 A	ALA
15	ILE32	67	RESIDUE	1 A	ILE
16	LYS33	68	RESIDUE	1 A	LYS
17	LYS34	70	RESIDUE	1 A	LYS
18	PHE35	71	RESIDUE	1 A	PHE
19	ARG50	74	RESIDUE	1 A	ARG
20	GLU51	75	RESIDUE	1 A	GLU
21	LEU54	85	RESIDUE	1 A	LEU
22	LEU55	87	RESIDUE	1 A	LEU
23	HIS60	93	RESIDUE	1 A	HIS
24	LEU63	94	RESIDUE	1 A	LEU
25	VAL64	97	RESIDUE	1 A	VAL
26	LEU78	102	RESIDUE	1 A	LEU
27	PHE80	104	RESIDUE	1 A	PHE
28	GLU81	112	RESIDUE	1 A	GLU
29	PHE82	117	RESIDUE	1 A	PHE
30	VAL83	126	RESIDUE	1 A	VAL
31	ASP84	132	RESIDUE	1 A	ASP
32	HIS85	139	RESIDUE	1 A	HIS
33	THR86	145	RESIDUE	1 A	THR
34	LEU88	147	RESIDUE	1 A	LEU
35	ASP89	148	RESIDUE	1 A	ASP
36	ASN121	153	RESIDUE	1 A	ASN
37	ILE122	155	RESIDUE	1 A	ILE
38	ILE123	168	RESIDUE	1 A	ILE
39	HIS124	174	RESIDUE	1 A	HIS
40	ASP126	177	RESIDUE	1 A	ASP
41	LYS128	182	RESIDUE	1 A	LYS
42	GLU130	184	RESIDUE	1 A	GLU
43	ASN131	192	RESIDUE	1 A	ASN
44	LEU133	196	RESIDUE	1 A	LEU
45	LEU142	199	RESIDUE	1 A	LEU
46	CYS143	201	RESIDUE	1 A	CYS
47	ASP144	207	RESIDUE	1 A	ASP
48	PHE145	214	RESIDUE	1 A	PHE
49	GLY146	225	RESIDUE	1 A	GLY
50	PHE147	229	RESIDUE	1 A	PHE
51	ALA148	240	RESIDUE	1 A	ALA
52	VAL162	245	RESIDUE	1 A	VAL
53	ALA163	247	RESIDUE	1 A	ALA
54	THR164	252	RESIDUE	1 A	THR
