# created with PyMOL 2.5.4
@<TRIPOS>MOLECULE
4AT4_A_aligned_pocket
259 215 58              
SMALL
USER_CHARGES
@<TRIPOS>ATOM
1	  CA	4.625	24.031	4.658	C.3	1	LYS557	0.000	
2	  CB	3.163	24.009	4.160	C.3	1	LYS557	0.000	
3	  CG	2.862	24.985	3.020	C.3	1	LYS557	0.000	
4	  CD	2.619	26.411	3.511	C.3	1	LYS557	0.000	
5	  CB	3.301	20.829	7.793	C.3	2	ARG558	0.000	
6	  CG	2.332	21.928	8.206	C.3	2	ARG558	0.000	
7	  CD	1.135	21.325	8.917	C.3	2	ARG558	0.000	
8	  NE	-0.130	21.680	8.270	N.pl3	2	ARG558	0.000	
9	  CZ	-1.138	20.836	8.074	C.cat	2	ARG558	0.000	
10	 NH1	-1.034	19.567	8.450	N.pl3	2	ARG558	0.000	
11	 NH2	-2.250	21.248	7.480	N.pl3	2	ARG558	0.000	
12	   O	4.899	13.561	9.729	O.3	3	LEU560	0.000	
13	  CB	4.252	14.877	6.929	C.3	3	LEU560	0.000	
14	  CG	3.324	15.862	6.191	C.3	3	LEU560	0.000	
15	 CD1	2.926	15.316	4.833	C.3	3	LEU560	0.000	
16	 CD2	2.071	16.185	7.004	C.3	3	LEU560	0.000	
17	   C	10.785	9.614	8.298	C.2	4	GLU562	0.000	
18	   O	10.149	8.769	8.934	O.2	4	GLU562	0.000	
19	   N	11.415	9.365	7.154	N.am	5	GLY563	0.000	
20	  CA	11.433	8.061	6.506	C.3	5	GLY563	0.000	
21	   C	12.795	7.404	6.431	C.2	5	GLY563	0.000	
22	   O	13.718	7.782	7.160	O.2	5	GLY563	0.000	
23	   N	12.917	6.407	5.534	N.am	6	ALA564	0.000	
24	  CA	14.133	5.619	5.314	C.3	6	ALA564	0.000	
25	   C	15.328	6.422	4.785	C.3	6	ALA564	0.000	
26	  CB	13.836	4.443	4.395	C.3	6	ALA564	0.000	
27	   N	15.105	7.319	3.799	N.3	7	PHE565	0.000	
28	  CB	16.282	7.901	1.684	C.3	7	PHE565	0.000	
29	  CG	15.055	8.240	0.869	C.3	7	PHE565	0.000	
30	 CD2	14.139	7.255	0.518	C.2	7	PHE565	0.000	
31	 CE1	13.721	9.841	-0.373	C.2	7	PHE565	0.000	
32	 CE2	13.018	7.562	-0.261	C.2	7	PHE565	0.000	
33	  CZ	12.816	8.853	-0.699	C.2	7	PHE565	0.000	
34	   N	15.124	10.094	4.210	N.3	8	GLY566	0.000	
35	   C	13.674	11.903	5.198	C.2	8	GLY566	0.000	
36	   O	12.856	11.058	5.572	O.2	8	GLY566	0.000	
37	  CB	7.685	12.747	4.646	C.3	9	VAL568	0.000	
38	 CG1	6.475	12.814	3.716	C.3	9	VAL568	0.000	
39	 CG2	8.449	11.440	4.426	C.3	9	VAL568	0.000	
40	 CD2	0.332	20.548	4.838	C.3	10	LEU570	0.000	
41	 CD1	-4.014	20.961	0.431	C.3	11	LEU584	0.000	
42	  CA	3.357	15.271	-0.220	C.3	12	ALA586	0.000	
43	   C	4.750	15.026	-0.803	C.2	12	ALA586	0.000	
44	   O	4.892	14.299	-1.791	O.2	12	ALA586	0.000	
45	  CB	2.666	13.958	0.112	C.3	12	ALA586	0.000	
46	   N	5.762	15.708	-0.249	N.am	13	VAL587	0.000	
47	  CG	8.764	11.157	0.476	C.3	14	LYS588	0.000	
48	  CD	8.693	9.699	0.048	C.3	14	LYS588	0.000	
49	  CE	8.970	8.753	1.192	C.3	14	LYS588	0.000	
50	  NZ	8.828	7.332	0.776	N.4	14	LYS588	0.000	
51	   N	14.338	5.066	-8.375	N.3	15	GLU604	0.000	
52	  CA	13.016	5.038	-7.738	C.3	15	GLU604	0.000	
53	   C	12.053	5.935	-8.535	C.2	15	GLU604	0.000	
54	   O	10.911	5.538	-8.782	O.2	15	GLU604	0.000	
55	  CB	13.115	5.485	-6.263	C.3	15	GLU604	0.000	
56	  CG	11.789	5.554	-5.514	C.3	15	GLU604	0.000	
57	  CD	11.267	4.279	-4.876	C.2	15	GLU604	0.000	
58	 OE1	11.484	3.179	-5.437	O.co2	15	GLU604	0.000	
59	 OE2	10.615	4.389	-3.813	O.co2	15	GLU604	0.000	
60	   N	12.539	7.122	-8.962	N.am	16	ALA605	0.000	
61	  CA	11.801	8.092	-9.772	C.3	16	ALA605	0.000	
62	   C	11.423	7.480	-11.121	C.2	16	ALA605	0.000	
63	   O	10.288	7.650	-11.557	O.2	16	ALA605	0.000	
64	   O	7.671	3.350	-11.914	O.3	17	LEU607	0.000	
65	  CB	10.464	2.420	-10.245	C.3	17	LEU607	0.000	
66	  CG	9.501	1.336	-9.733	C.3	17	LEU607	0.000	
67	 CD1	9.613	0.055	-10.554	C.3	17	LEU607	0.000	
68	 CD2	9.757	1.039	-8.271	C.3	17	LEU607	0.000	
69	   N	8.498	4.837	-10.410	N.3	18	LEU608	0.000	
70	  CA	7.236	5.491	-10.062	C.3	18	LEU608	0.000	
71	   C	6.627	6.357	-11.165	C.2	18	LEU608	0.000	
72	   O	5.405	6.522	-11.186	O.2	18	LEU608	0.000	
73	  CB	7.354	6.268	-8.737	C.3	18	LEU608	0.000	
74	  CG	7.613	5.424	-7.482	C.3	18	LEU608	0.000	
75	 CD1	8.114	6.281	-6.348	C.3	18	LEU608	0.000	
76	 CD2	6.368	4.650	-7.054	C.3	18	LEU608	0.000	
77	   N	7.464	6.895	-12.084	N.am	19	THR609	0.000	
78	  CA	6.994	7.714	-13.208	C.3	19	THR609	0.000	
79	   O	2.334	5.221	-11.186	O.3	20	LEU611	0.000	
80	 CD1	4.856	0.701	-11.715	C.3	20	LEU611	0.000	
81	 CD2	4.602	1.268	-9.318	C.3	20	LEU611	0.000	
82	   O	-3.697	6.060	-10.684	O.3	21	HIS613	0.000	
83	   O	-2.200	6.635	-7.919	O.3	22	ILE616	0.000	
84	 CG2	0.206	3.928	-8.119	C.3	22	ILE616	0.000	
85	 CD1	-1.421	1.162	-7.452	C.3	22	ILE616	0.000	
86	  CA	-1.019	7.434	-5.454	C.3	23	VAL617	0.000	
87	   C	-0.159	8.126	-6.529	C.2	23	VAL617	0.000	
88	   O	0.851	7.572	-6.971	O.2	23	VAL617	0.000	
89	  CB	-0.432	7.497	-4.011	C.3	23	VAL617	0.000	
90	 CG1	0.908	6.772	-3.898	C.3	23	VAL617	0.000	
91	 CG2	-0.326	8.934	-3.506	C.3	23	VAL617	0.000	
92	   N	-0.638	9.281	-7.011	N.am	24	LYS618	0.000	
93	  CB	-0.932	11.187	-8.565	C.3	24	LYS618	0.000	
94	  CB	4.742	9.430	-8.685	C.3	25	PHE619	0.000	
95	  CG	6.179	9.826	-8.950	C.2	25	PHE619	0.000	
96	 CD1	7.028	10.168	-7.905	C.2	25	PHE619	0.000	
97	   O	8.487	14.220	-3.321	O.3	26	MET631	0.000	
98	  SD	10.668	9.479	-4.566	S.3	26	MET631	0.000	
99	  CE	12.285	9.360	-5.306	C.3	26	MET631	0.000	
100	   C	5.666	13.916	-5.744	C.3	27	VAL632	0.000	
101	   N	4.761	13.807	-4.752	N.3	28	PHE633	0.000	
102	  CA	3.565	12.956	-4.757	C.3	28	PHE633	0.000	
103	  CB	3.679	11.833	-3.707	C.3	28	PHE633	0.000	
104	  CG	4.789	10.837	-3.913	C.2	28	PHE633	0.000	
105	 CD1	4.579	9.681	-4.654	C.2	28	PHE633	0.000	
106	 CD2	6.032	11.026	-3.321	C.2	28	PHE633	0.000	
107	 CE1	5.602	8.746	-4.825	C.2	28	PHE633	0.000	
108	 CE2	7.055	10.092	-3.493	C.2	28	PHE633	0.000	
109	  CZ	6.833	8.960	-4.244	C.2	28	PHE633	0.000	
110	   N	1.135	13.363	-4.751	N.3	29	GLU634	0.000	
111	  CA	-0.087	14.100	-4.408	C.3	29	GLU634	0.000	
112	   C	-0.365	14.010	-2.900	C.2	29	GLU634	0.000	
113	   O	0.004	13.018	-2.263	O.2	29	GLU634	0.000	
114	  CB	-1.301	13.607	-5.227	C.3	29	GLU634	0.000	
115	  CG	-1.800	12.215	-4.864	C.3	29	GLU634	0.000	
116	  CD	-3.052	11.745	-5.575	C.2	29	GLU634	0.000	
117	 OE1	-4.058	12.491	-5.589	O.co2	29	GLU634	0.000	
118	 OE2	-3.044	10.597	-6.070	O.co2	29	GLU634	0.000	
119	   N	-0.990	15.050	-2.335	N.am	30	TYR635	0.000	
120	  CA	-1.341	15.063	-0.919	C.3	30	TYR635	0.000	
121	   C	-2.784	14.614	-0.771	C.3	30	TYR635	0.000	
122	  CB	-1.104	16.449	-0.282	C.3	30	TYR635	0.000	
123	  CG	-1.475	16.530	1.185	C.2	30	TYR635	0.000	
124	 CD1	-0.647	15.989	2.165	C.2	30	TYR635	0.000	
125	 CD2	-2.637	17.178	1.596	C.2	30	TYR635	0.000	
126	 CE1	-0.982	16.063	3.518	C.2	30	TYR635	0.000	
127	 CE2	-2.980	17.263	2.945	C.2	30	TYR635	0.000	
128	  CZ	-2.149	16.705	3.903	C.2	30	TYR635	0.000	
129	  OH	-2.482	16.789	5.235	O.3	30	TYR635	0.000	
130	   N	-2.986	13.506	-0.050	N.3	31	MET636	0.000	
131	  CA	-4.315	12.954	0.202	C.3	31	MET636	0.000	
132	   C	-4.767	13.516	1.545	C.2	31	MET636	0.000	
133	   O	-4.237	13.136	2.591	O.2	31	MET636	0.000	
134	  CB	-4.300	11.413	0.176	C.3	31	MET636	0.000	
135	  CG	-3.697	10.826	-1.099	C.3	31	MET636	0.000	
136	   N	-5.684	14.498	1.485	N.am	32	LYS637	0.000	
137	  CA	-6.242	15.255	2.611	C.3	32	LYS637	0.000	
138	   C	-6.804	14.384	3.744	C.2	32	LYS637	0.000	
139	   O	-6.570	14.692	4.913	O.2	32	LYS637	0.000	
140	  CB	-7.302	16.245	2.091	C.3	32	LYS637	0.000	
141	  CG	-7.706	17.343	3.079	C.3	32	LYS637	0.000	
142	  CD	-8.496	18.481	2.412	C.3	32	LYS637	0.000	
143	   N	-7.521	13.302	3.399	N.am	33	HIS638	0.000	
144	  CA	-8.135	12.411	4.385	C.3	33	HIS638	0.000	
145	   C	-7.226	11.364	5.052	C.2	33	HIS638	0.000	
146	   O	-7.694	10.625	5.915	O.2	33	HIS638	0.000	
147	 CD2	-11.383	13.348	4.700	C.3	33	HIS638	0.000	
148	   N	-5.944	11.350	4.684	N.am	34	GLY639	0.000	
149	  CA	-4.940	10.459	5.257	C.3	34	GLY639	0.000	
150	   C	-5.070	8.992	4.898	C.3	34	GLY639	0.000	
151	   N	-4.379	8.125	5.674	N.3	35	ASP640	0.000	
152	  CA	-4.365	6.677	5.459	C.3	35	ASP640	0.000	
153	  CB	-3.190	5.985	6.185	C.3	35	ASP640	0.000	
154	  CG	-3.367	5.735	7.674	C.2	35	ASP640	0.000	
155	 OD1	-4.182	4.857	8.038	O.co2	35	ASP640	0.000	
156	 OD2	-2.608	6.327	8.467	O.co2	35	ASP640	0.000	
157	  CB	-6.317	6.898	10.213	C.3	36	LYS643	0.000	
158	  CG	-5.027	6.804	11.014	C.3	36	LYS643	0.000	
159	  CD	-4.191	8.068	10.883	C.3	36	LYS643	0.000	
160	  CE	-2.828	7.900	11.506	C.3	36	LYS643	0.000	
161	  NZ	-1.937	9.047	11.195	N.4	36	LYS643	0.000	
162	   O	2.230	-4.939	-11.264	O.3	37	LEU683	0.000	
163	 CD2	1.560	-1.005	-8.684	C.3	37	LEU683	0.000	
164	   C	4.522	-4.726	-13.933	C.3	38	GLN686	0.000	
165	   N	4.210	-5.969	-13.488	N.3	39	HIS687	0.000	
166	  CA	5.118	-6.926	-12.836	C.3	39	HIS687	0.000	
167	   C	5.760	-6.355	-11.561	C.2	39	HIS687	0.000	
168	   O	6.917	-6.652	-11.248	O.2	39	HIS687	0.000	
169	   N	4.987	-5.540	-10.824	N.am	40	PHE688	0.000	
170	  CA	5.422	-4.909	-9.584	C.3	40	PHE688	0.000	
171	   C	4.867	-5.648	-8.372	C.2	40	PHE688	0.000	
172	   O	3.656	-5.872	-8.279	O.2	40	PHE688	0.000	
173	  CB	5.039	-3.415	-9.550	C.3	40	PHE688	0.000	
174	  CG	5.531	-2.668	-8.328	C.2	40	PHE688	0.000	
175	 CD1	6.833	-2.183	-8.265	C.2	40	PHE688	0.000	
176	 CD2	4.691	-2.446	-7.242	C.2	40	PHE688	0.000	
177	 CE1	7.288	-1.501	-7.134	C.2	40	PHE688	0.000	
178	 CE2	5.149	-1.765	-6.111	C.2	40	PHE688	0.000	
179	  CZ	6.444	-1.296	-6.066	C.2	40	PHE688	0.000	
180	   N	5.768	-6.016	-7.446	N.am	41	VAL689	0.000	
181	  CA	5.451	-6.693	-6.189	C.3	41	VAL689	0.000	
182	   O	6.573	-5.023	-4.874	O.3	41	VAL689	0.000	
183	 CD2	2.066	-1.605	-2.760	C.3	42	HIS690	0.000	
184	 OD2	4.878	-1.950	4.590	 O	43	ASP692	0.000	
185	   C	-1.354	2.390	5.469	C.2	44	ARG696	0.000	
186	   O	-0.897	3.528	5.581	O.2	44	ARG696	0.000	
187	   O	-0.850	3.023	1.046	O.3	45	ASN697	0.000	
188	  CB	0.534	0.953	2.702	C.3	45	ASN697	0.000	
189	  CG	1.821	0.898	3.489	C.2	45	ASN697	0.000	
190	 ND2	2.305	-0.304	3.739	N.pl3	45	ASN697	0.000	
191	 OD1	2.403	1.924	3.866	O.2	45	ASN697	0.000	
192	  CG	-2.405	7.501	1.177	C.3	46	LEU699	0.000	
193	 CD1	-1.384	6.898	0.237	C.3	46	LEU699	0.000	
194	 CD2	-1.958	8.854	1.647	C.3	46	LEU699	0.000	
195	  NZ	-5.300	9.920	-7.456	N.4	47	LYS707	0.000	
196	   O	-0.859	3.710	-4.039	O.3	48	ILE708	0.000	
197	   C	1.714	2.836	-0.936	C.2	49	GLY709	0.000	
198	   O	1.387	1.688	-0.625	O.2	49	GLY709	0.000	
199	   N	2.892	3.372	-0.619	N.am	50	ASP710	0.000	
200	  CA	3.921	2.717	0.177	C.3	50	ASP710	0.000	
201	   C	4.656	3.848	0.870	C.2	50	ASP710	0.000	
202	   O	5.555	4.461	0.286	O.2	50	ASP710	0.000	
203	  CB	4.859	1.858	-0.700	C.3	50	ASP710	0.000	
204	  CG	5.746	0.889	0.068	C.2	50	ASP710	0.000	
205	 OD1	5.567	0.763	1.302	O.co2	50	ASP710	0.000	
206	 OD2	6.605	0.244	-0.567	O.co2	50	ASP710	0.000	
207	   N	4.184	4.185	2.084	N.am	51	PHE711	0.000	
208	  CA	4.670	5.289	2.911	C.3	51	PHE711	0.000	
209	   C	6.182	5.400	3.051	C.2	51	PHE711	0.000	
210	   O	6.726	6.468	2.765	O.2	51	PHE711	0.000	
211	  CB	3.959	5.324	4.274	C.3	51	PHE711	0.000	
212	  CG	2.618	6.019	4.255	C.2	51	PHE711	0.000	
213	 CD1	1.487	5.375	3.770	C.2	51	PHE711	0.000	
214	 CD2	2.480	7.312	4.747	C.2	51	PHE711	0.000	
215	 CE1	0.245	6.017	3.760	C.2	51	PHE711	0.000	
216	 CE2	1.237	7.952	4.741	C.2	51	PHE711	0.000	
217	  CZ	0.128	7.297	4.252	C.2	51	PHE711	0.000	
218	   N	6.839	4.314	3.475	N.am	52	GLY712	0.000	
219	  CA	8.286	4.275	3.690	C.3	52	GLY712	0.000	
220	   C	8.730	5.339	4.674	C.2	52	GLY712	0.000	
221	   O	9.827	5.890	4.564	O.2	52	GLY712	0.000	
222	   N	7.833	5.648	5.621	N.am	53	MET713	0.000	
223	  CA	7.931	6.673	6.651	C.3	53	MET713	0.000	
224	   C	7.700	6.014	8.014	C.2	53	MET713	0.000	
225	   O	6.791	5.188	8.143	O.2	53	MET713	0.000	
226	  CB	6.842	7.724	6.368	C.3	53	MET713	0.000	
227	  CG	6.874	8.930	7.264	C.3	53	MET713	0.000	
228	  SD	5.183	9.520	7.491	S.3	53	MET713	0.000	
229	  CE	5.371	11.191	7.077	C.3	53	MET713	0.000	
230	   N	8.512	6.381	9.028	N.am	54	SER714	0.000	
231	  CA	8.395	5.821	10.378	C.3	54	SER714	0.000	
232	   C	7.148	6.342	11.102	C.2	54	SER714	0.000	
233	   O	7.052	7.535	11.405	O.2	54	SER714	0.000	
234	   N	6.169	5.449	11.317	N.am	55	ARG715	0.000	
235	  CA	4.913	5.770	11.991	C.3	55	ARG715	0.000	
236	   C	4.778	4.853	13.201	C.3	55	ARG715	0.000	
237	  CB	3.711	5.640	11.035	C.3	55	ARG715	0.000	
238	  CG	3.735	6.623	9.865	C.3	55	ARG715	0.000	
239	  CD	2.592	6.401	8.894	C.3	55	ARG715	0.000	
240	  NE	2.723	5.145	8.152	N.pl3	55	ARG715	0.000	
241	  CZ	1.787	4.639	7.356	C.cat	55	ARG715	0.000	
242	 NH1	0.635	5.277	7.183	N.pl3	55	ARG715	0.000	
243	 NH2	1.993	3.490	6.728	N.pl3	55	ARG715	0.000	
244	  CB	0.103	4.908	15.287	C.3	56	VAL717	0.000	
245	 CG1	-0.017	5.144	13.782	C.3	56	VAL717	0.000	
246	 CG2	-1.240	4.515	15.896	C.3	56	VAL717	0.000	
247	 CD2	0.516	3.286	10.625	C.2	57	TYR718	0.000	
248	 CE1	-1.923	2.203	11.367	C.2	57	TYR718	0.000	
249	 CE2	-0.666	3.962	10.326	C.2	57	TYR718	0.000	
250	  CZ	-1.883	3.417	10.700	C.2	57	TYR718	0.000	
251	  OH	-3.052	4.077	10.411	O.3	57	TYR718	0.000	
252	  CB	6.914	-4.124	11.335	C.3	58	TYR722	0.000	
253	  CG	6.266	-3.342	10.212	C.2	58	TYR722	0.000	
254	 CD1	5.483	-2.222	10.476	C.2	58	TYR722	0.000	
255	 CD2	6.409	-3.740	8.885	C.2	58	TYR722	0.000	
256	 CE1	4.848	-1.522	9.451	C.2	58	TYR722	0.000	
257	 CE2	5.789	-3.041	7.850	C.2	58	TYR722	0.000	
258	  CZ	5.011	-1.930	8.138	C.2	58	TYR722	0.000	
259	  OH	4.395	-1.232	7.127	O.3	58	TYR722	0.000	
@<TRIPOS>BOND
1 1 2 1
2 2 3 1
3 3 4 1
4 5 6 1
5 6 7 1
6 7 8 1
7 8 9 1
8 9 10 2
9 9 11 1
10 13 14 1
11 14 15 1
12 14 16 1
13 17 18 2
14 17 19 1
15 19 20 1
16 20 21 1
17 21 22 2
18 21 23 1
19 23 24 1
20 24 25 1
21 24 26 1
22 25 27 1
23 28 29 1
24 29 30 1
25 30 32 2
26 31 33 2
27 32 33 1
28 35 36 2
29 37 38 1
30 37 39 1
31 42 43 1
32 42 45 1
33 43 44 2
34 43 46 1
35 47 48 1
36 48 49 1
37 49 50 1
38 51 52 1
39 52 53 1
40 52 55 1
41 53 54 2
42 53 60 1
43 55 56 1
44 56 57 1
45 57 58 2
46 57 59 1
47 60 61 1
48 61 62 1
49 62 63 2
50 65 66 1
51 66 67 1
52 66 68 1
53 69 70 1
54 70 71 1
55 70 73 1
56 71 72 2
57 71 77 1
58 73 74 1
59 74 75 1
60 74 76 1
61 77 78 1
62 86 87 1
63 86 89 1
64 87 88 2
65 87 92 1
66 89 90 1
67 89 91 1
68 94 95 1
69 95 96 2
70 98 99 1
71 100 101 1
72 101 102 1
73 102 103 1
74 103 104 1
75 104 105 2
76 104 106 1
77 105 107 1
78 106 108 2
79 107 109 2
80 108 109 1
81 110 111 1
82 111 112 1
83 111 114 1
84 112 113 2
85 112 119 1
86 114 115 1
87 115 116 1
88 116 117 2
89 116 118 1
90 119 120 1
91 120 121 1
92 120 122 1
93 121 130 1
94 122 123 1
95 123 124 2
96 123 125 1
97 124 126 1
98 125 127 2
99 126 128 2
100 127 128 1
101 128 129 1
102 130 131 1
103 131 132 1
104 131 134 1
105 132 133 2
106 132 136 1
107 134 135 1
108 136 137 1
109 137 138 1
110 137 140 1
111 138 139 2
112 138 143 1
113 140 141 1
114 141 142 1
115 143 144 1
116 144 145 1
117 145 146 2
118 145 148 1
119 148 149 1
120 149 150 1
121 150 151 1
122 151 152 1
123 152 153 1
124 153 154 1
125 154 155 2
126 154 156 1
127 157 158 1
128 158 159 1
129 159 160 1
130 160 161 1
131 164 165 1
132 165 166 1
133 166 167 1
134 167 168 2
135 167 169 1
136 169 170 1
137 170 171 1
138 170 173 1
139 171 172 2
140 171 180 1
141 173 174 1
142 174 175 2
143 174 176 1
144 175 177 1
145 176 178 2
146 177 179 2
147 178 179 1
148 180 181 1
149 185 186 2
150 188 189 1
151 189 190 1
152 189 191 2
153 192 193 1
154 192 194 1
155 197 198 2
156 197 199 1
157 199 200 1
158 200 201 1
159 200 203 1
160 201 202 2
161 201 207 1
162 203 204 1
163 204 205 2
164 204 206 1
165 207 208 1
166 208 209 1
167 208 211 1
168 209 210 2
169 209 218 1
170 211 212 1
171 212 213 2
172 212 214 1
173 213 215 1
174 214 216 2
175 215 217 2
176 216 217 1
177 218 219 1
178 219 220 1
179 220 221 2
180 220 222 1
181 222 223 1
182 223 224 1
183 223 226 1
184 224 225 2
185 224 230 1
186 226 227 1
187 227 228 1
188 228 229 1
189 230 231 1
190 231 232 1
191 232 233 2
192 232 234 1
193 234 235 1
194 235 236 1
195 235 237 1
196 237 238 1
197 238 239 1
198 239 240 1
199 240 241 1
200 241 242 2
201 241 243 1
202 244 245 1
203 244 246 1
204 247 249 2
205 248 250 2
206 249 250 1
207 250 251 1
208 252 253 1
209 253 254 2
210 253 255 1
211 254 256 1
212 255 257 2
213 256 258 2
214 257 258 1
215 258 259 1
@<TRIPOS>SUBSTRUCTURE
1	LYS557	1	RESIDUE	1 A	LYS
2	ARG558	5	RESIDUE	1 A	ARG
3	LEU560	12	RESIDUE	1 A	LEU
4	GLU562	17	RESIDUE	1 A	GLU
5	GLY563	19	RESIDUE	1 A	GLY
6	ALA564	23	RESIDUE	1 A	ALA
7	PHE565	27	RESIDUE	1 A	PHE
8	GLY566	34	RESIDUE	1 A	GLY
9	VAL568	37	RESIDUE	1 A	VAL
10	LEU570	40	RESIDUE	1 A	LEU
11	LEU584	41	RESIDUE	1 A	LEU
12	ALA586	42	RESIDUE	1 A	ALA
13	VAL587	46	RESIDUE	1 A	VAL
14	LYS588	47	RESIDUE	1 A	LYS
15	GLU604	51	RESIDUE	1 A	GLU
16	ALA605	60	RESIDUE	1 A	ALA
17	LEU607	64	RESIDUE	1 A	LEU
18	LEU608	69	RESIDUE	1 A	LEU
19	THR609	77	RESIDUE	1 A	THR
20	LEU611	79	RESIDUE	1 A	LEU
21	HIS613	82	RESIDUE	1 A	HIS
22	ILE616	83	RESIDUE	1 A	ILE
23	VAL617	86	RESIDUE	1 A	VAL
24	LYS618	92	RESIDUE	1 A	LYS
25	PHE619	94	RESIDUE	1 A	PHE
26	MET631	97	RESIDUE	1 A	MET
27	VAL632	100	RESIDUE	1 A	VAL
28	PHE633	101	RESIDUE	1 A	PHE
29	GLU634	110	RESIDUE	1 A	GLU
30	TYR635	119	RESIDUE	1 A	TYR
31	MET636	130	RESIDUE	1 A	MET
32	LYS637	136	RESIDUE	1 A	LYS
33	HIS638	143	RESIDUE	1 A	HIS
34	GLY639	148	RESIDUE	1 A	GLY
35	ASP640	151	RESIDUE	1 A	ASP
36	LYS643	157	RESIDUE	1 A	LYS
37	LEU683	162	RESIDUE	1 A	LEU
38	GLN686	164	RESIDUE	1 A	GLN
39	HIS687	165	RESIDUE	1 A	HIS
40	PHE688	169	RESIDUE	1 A	PHE
41	VAL689	180	RESIDUE	1 A	VAL
42	HIS690	183	RESIDUE	1 A	HIS
43	ASP692	184	RESIDUE	1 A	ASP
44	ARG696	185	RESIDUE	1 A	ARG
45	ASN697	187	RESIDUE	1 A	ASN
46	LEU699	192	RESIDUE	1 A	LEU
47	LYS707	195	RESIDUE	1 A	LYS
48	ILE708	196	RESIDUE	1 A	ILE
49	GLY709	197	RESIDUE	1 A	GLY
50	ASP710	199	RESIDUE	1 A	ASP
51	PHE711	207	RESIDUE	1 A	PHE
52	GLY712	218	RESIDUE	1 A	GLY
53	MET713	222	RESIDUE	1 A	MET
54	SER714	230	RESIDUE	1 A	SER
55	ARG715	234	RESIDUE	1 A	ARG
56	VAL717	244	RESIDUE	1 A	VAL
57	TYR718	247	RESIDUE	1 A	TYR
58	TYR722	252	RESIDUE	1 A	TYR
