# created with PyMOL 2.5.4
@<TRIPOS>MOLECULE
4H39_A_aligned_pocket
234 192 53              
SMALL
USER_CHARGES
@<TRIPOS>ATOM
1	   C	3.411	25.382	3.322	C.2	1	ASN66	0.000	
2	   O	2.706	24.508	3.829	O.2	1	ASN66	0.000	
3	  CB	1.293	26.553	2.708	C.3	1	ASN66	0.000	
4	  CG	2.969	21.657	7.395	C.3	2	LYS68	0.000	
5	  CD	2.412	21.188	8.727	C.3	2	LYS68	0.000	
6	  NZ	2.911	19.851	10.780	N.4	2	LYS68	0.000	
7	   C	5.588	14.320	8.155	C.2	3	ILE70	0.000	
8	   O	4.965	13.374	8.647	O.2	3	ILE70	0.000	
9	 CG1	4.247	15.354	5.624	C.3	3	ILE70	0.000	
10	 CD1	3.128	15.164	4.615	C.3	3	ILE70	0.000	
11	  CA	7.582	12.975	7.827	C.3	4	GLY71	0.000	
12	   N	13.138	11.050	7.231	N.3	5	GLY73	0.000	
13	  CA	13.970	9.864	7.126	C.3	5	GLY73	0.000	
14	  CB	14.847	7.067	7.276	C.3	6	ALA74	0.000	
15	   N	15.176	7.869	4.710	N.3	7	GLN75	0.000	
16	   C	15.065	9.463	2.807	C.3	7	GLN75	0.000	
17	  CB	14.142	7.137	2.601	C.3	7	GLN75	0.000	
18	   N	14.461	10.294	3.653	N.3	8	GLY76	0.000	
19	  CA	14.285	11.696	3.324	C.3	8	GLY76	0.000	
20	   C	13.314	12.450	4.216	C.2	8	GLY76	0.000	
21	   O	12.803	11.917	5.199	O.2	8	GLY76	0.000	
22	   O	3.742	21.199	2.961	O.3	9	ALA80	0.000	
23	 ND2	-5.171	20.517	0.079	N.3	10	ASN89	0.000	
24	   C	4.926	16.280	-1.355	C.2	11	ALA91	0.000	
25	   O	5.052	15.843	-2.498	O.2	11	ALA91	0.000	
26	  CB	3.422	14.716	-0.129	C.3	11	ALA91	0.000	
27	  CD	10.856	10.811	-0.675	C.3	12	LYS93	0.000	
28	  CE	9.682	9.998	-0.162	C.3	12	LYS93	0.000	
29	  NZ	9.737	8.591	-0.658	N.4	12	LYS93	0.000	
30	   C	13.710	3.328	-8.403	C.2	13	ARG110	0.000	
31	   O	12.739	3.014	-9.094	O.2	13	ARG110	0.000	
32	  CG	14.779	0.309	-8.161	C.3	13	ARG110	0.000	
33	  NE	14.653	-0.806	-5.963	N.pl3	13	ARG110	0.000	
34	  CZ	13.599	-1.541	-5.624	C.cat	13	ARG110	0.000	
35	 NH1	13.052	-2.365	-6.508	N.pl3	13	ARG110	0.000	
36	 NH2	13.095	-1.457	-4.400	N.pl3	13	ARG110	0.000	
37	   N	13.618	4.147	-7.359	N.am	14	GLU111	0.000	
38	  CA	12.352	4.778	-7.002	C.3	14	GLU111	0.000	
39	   C	11.827	5.610	-8.168	C.2	14	GLU111	0.000	
40	   O	10.634	5.601	-8.463	O.2	14	GLU111	0.000	
41	  CB	12.519	5.655	-5.758	C.3	14	GLU111	0.000	
42	  CG	11.219	6.256	-5.239	C.3	14	GLU111	0.000	
43	  CD	11.410	7.068	-3.969	C.2	14	GLU111	0.000	
44	 OE1	12.568	7.221	-3.522	O.co2	14	GLU111	0.000	
45	 OE2	10.399	7.552	-3.417	O.co2	14	GLU111	0.000	
46	   N	12.729	6.323	-8.834	N.am	15	LEU112	0.000	
47	  CA	12.355	7.166	-9.963	C.3	15	LEU112	0.000	
48	   C	11.800	6.356	-11.133	C.2	15	LEU112	0.000	
49	   O	10.804	6.745	-11.743	O.2	15	LEU112	0.000	
50	  CA	9.343	2.593	-10.542	C.3	16	LEU114	0.000	
51	   C	8.144	3.521	-10.703	C.2	16	LEU114	0.000	
52	   O	7.070	3.090	-11.120	O.2	16	LEU114	0.000	
53	  CB	9.476	2.141	-9.085	C.3	16	LEU114	0.000	
54	  CG	10.286	0.865	-8.834	C.3	16	LEU114	0.000	
55	 CD1	10.655	0.725	-7.366	C.3	16	LEU114	0.000	
56	 CD2	9.516	-0.354	-9.308	C.3	16	LEU114	0.000	
57	   N	8.337	4.797	-10.377	N.am	17	MET115	0.000	
58	  CA	7.262	5.781	-10.472	C.3	17	MET115	0.000	
59	   C	6.862	6.028	-11.920	C.2	17	MET115	0.000	
60	   O	5.715	6.366	-12.207	O.2	17	MET115	0.000	
61	  CB	7.664	7.101	-9.807	C.3	17	MET115	0.000	
62	  CG	7.809	7.026	-8.295	C.3	17	MET115	0.000	
63	  SD	6.385	6.252	-7.505	S.3	17	MET115	0.000	
64	  CE	5.042	7.222	-8.188	C.3	17	MET115	0.000	
65	   N	7.814	5.851	-12.831	N.am	18	LYS116	0.000	
66	   C	-3.708	5.573	-11.135	C.2	19	HIS120	0.000	
67	   O	-2.929	5.907	-10.245	O.2	19	HIS120	0.000	
68	  CB	-0.775	3.609	-8.032	C.3	20	ILE123	0.000	
69	 CG1	-1.274	2.163	-8.094	C.3	20	ILE123	0.000	
70	 CG2	0.697	3.640	-7.642	C.3	20	ILE123	0.000	
71	  CA	0.398	7.416	-5.804	C.3	21	ILE124	0.000	
72	   C	1.241	7.664	-7.049	C.2	21	ILE124	0.000	
73	   O	1.907	6.754	-7.552	O.2	21	ILE124	0.000	
74	  CB	1.280	7.492	-4.535	C.3	21	ILE124	0.000	
75	 CG1	1.241	8.899	-3.933	C.3	21	ILE124	0.000	
76	 CG2	2.710	7.048	-4.830	C.3	21	ILE124	0.000	
77	 CD1	-0.101	9.257	-3.320	C.3	21	ILE124	0.000	
78	   N	1.194	8.883	-7.571	N.am	22	SER125	0.000	
79	  CA	1.959	9.195	-8.768	C.3	22	SER125	0.000	
80	  CB	3.472	12.121	-4.650	C.3	23	MET146	0.000	
81	  CG	4.030	12.072	-3.244	C.3	23	MET146	0.000	
82	  SD	5.509	11.046	-3.188	S.3	23	MET146	0.000	
83	  CE	6.441	11.768	-4.534	C.3	23	MET146	0.000	
84	   N	0.776	13.387	-4.734	N.3	24	GLU147	0.000	
85	  CA	-0.501	13.832	-4.187	C.3	24	GLU147	0.000	
86	   C	-0.481	13.788	-2.668	C.2	24	GLU147	0.000	
87	   O	0.080	12.869	-2.075	O.2	24	GLU147	0.000	
88	  CB	-1.652	12.961	-4.699	C.3	24	GLU147	0.000	
89	  CG	-1.766	12.875	-6.207	C.3	24	GLU147	0.000	
90	  CD	-1.020	11.690	-6.785	C.2	24	GLU147	0.000	
91	 OE1	-0.009	11.264	-6.185	O.co2	24	GLU147	0.000	
92	 OE2	-1.451	11.177	-7.838	O.co2	24	GLU147	0.000	
93	   N	-1.088	14.785	-2.039	N.am	25	LEU148	0.000	
94	  CA	-1.290	14.745	-0.598	C.3	25	LEU148	0.000	
95	   C	-2.654	14.126	-0.310	C.2	25	LEU148	0.000	
96	   O	-3.684	14.662	-0.717	O.2	25	LEU148	0.000	
97	  CB	-1.211	16.149	0.006	C.3	25	LEU148	0.000	
98	  CG	-1.232	16.207	1.537	C.3	25	LEU148	0.000	
99	 CD1	0.062	15.645	2.115	C.3	25	LEU148	0.000	
100	 CD2	-1.466	17.626	2.035	C.3	25	LEU148	0.000	
101	   N	-2.662	12.986	0.372	N.am	26	MET149	0.000	
102	  CA	-3.917	12.353	0.761	C.3	26	MET149	0.000	
103	   C	-4.258	12.724	2.202	C.2	26	MET149	0.000	
104	   O	-3.440	13.324	2.896	O.2	26	MET149	0.000	
105	  CB	-3.844	10.837	0.571	C.3	26	MET149	0.000	
106	  CG	-3.516	10.418	-0.857	C.3	26	MET149	0.000	
107	   N	-5.461	12.378	2.651	N.am	27	ASP150	0.000	
108	  CA	-5.941	12.845	3.955	C.3	27	ASP150	0.000	
109	   C	-5.510	11.972	5.130	C.2	27	ASP150	0.000	
110	   O	-5.272	12.482	6.226	O.2	27	ASP150	0.000	
111	  CB	-7.463	12.985	3.961	C.3	27	ASP150	0.000	
112	  CG	-7.963	13.992	2.951	C.2	27	ASP150	0.000	
113	 OD1	-7.171	14.862	2.528	O.2	27	ASP150	0.000	
114	   N	-5.426	10.662	4.906	N.am	28	ALA151	0.000	
115	  CA	-5.090	9.722	5.971	C.3	28	ALA151	0.000	
116	   C	-4.807	8.326	5.419	C.2	28	ALA151	0.000	
117	   O	-5.078	8.045	4.250	O.2	28	ALA151	0.000	
118	  CB	-6.213	9.662	6.990	C.3	28	ALA151	0.000	
119	   N	-4.261	7.451	6.260	N.am	29	ASN152	0.000	
120	  CA	-4.098	6.052	5.872	C.3	29	ASN152	0.000	
121	  CB	-2.776	5.466	6.387	C.3	29	ASN152	0.000	
122	  CG	-2.711	5.386	7.902	C.2	29	ASN152	0.000	
123	 ND2	-1.519	5.594	8.451	N.pl3	29	ASN152	0.000	
124	 OD1	-3.714	5.133	8.571	O.2	29	ASN152	0.000	
125	  CB	-4.376	2.920	10.812	C.3	30	CYS154	0.000	
126	  SG	-2.806	2.305	10.169	S.3	30	CYS154	0.000	
127	   O	2.851	-4.102	-11.398	O.3	31	LEU180	0.000	
128	  CG	1.157	-1.517	-7.980	C.3	31	LEU180	0.000	
129	 CD1	1.172	-1.782	-6.480	C.3	31	LEU180	0.000	
130	 CD2	2.310	-0.613	-8.377	C.3	31	LEU180	0.000	
131	 CD2	0.839	-7.242	-8.424	C.3	32	HIS181	0.000	
132	   N	4.852	-5.283	-13.758	N.3	33	GLY184	0.000	
133	  CA	5.932	-6.137	-13.293	C.3	33	GLY184	0.000	
134	   C	6.374	-5.813	-11.878	C.2	33	GLY184	0.000	
135	   O	7.534	-6.012	-11.519	O.2	33	GLY184	0.000	
136	   N	5.441	-5.314	-11.072	N.am	34	ILE185	0.000	
137	  CA	5.735	-4.919	-9.700	C.3	34	ILE185	0.000	
138	   C	4.818	-5.635	-8.720	C.2	34	ILE185	0.000	
139	   O	3.616	-5.373	-8.678	O.2	34	ILE185	0.000	
140	  CB	5.550	-3.403	-9.496	C.3	34	ILE185	0.000	
141	 CG1	6.520	-2.612	-10.376	C.3	34	ILE185	0.000	
142	 CG2	5.739	-3.028	-8.027	C.3	34	ILE185	0.000	
143	 CD1	6.222	-1.123	-10.403	C.3	34	ILE185	0.000	
144	   N	5.384	-6.537	-7.929	N.am	35	ILE186	0.000	
145	  CA	4.621	-7.199	-6.878	C.3	35	ILE186	0.000	
146	 CG1	4.572	-9.347	-8.179	C.3	35	ILE186	0.000	
147	  CB	5.503	-4.495	2.008	C.3	36	ASP189	0.000	
148	  CB	5.492	-4.509	2.032	C.3	36	ASP189	0.000	
149	  CG	6.787	-5.251	1.694	C.3	36	ASP189	0.000	
150	  CG	6.196	-4.753	3.351	C.2	36	ASP189	0.000	
151	 OD1	6.556	-5.919	3.621	O.co2	36	ASP189	0.000	
152	 OD2	7.818	-4.977	2.346	 O	36	ASP189	0.000	
153	 OD2	6.383	-3.788	4.123	O.co2	36	ASP189	0.000	
154	  CE	3.731	-1.468	6.524	C.3	37	LYS191	0.000	
155	  NZ	4.722	-1.567	7.635	N.4	37	LYS191	0.000	
156	  CA	-0.361	2.284	6.871	C.3	38	SER193	0.000	
157	   C	0.239	2.733	5.539	C.2	38	SER193	0.000	
158	   O	0.665	3.875	5.412	O.2	38	SER193	0.000	
159	  CB	0.734	2.174	7.939	C.3	38	SER193	0.000	
160	  OG	1.667	1.159	7.616	O.3	38	SER193	0.000	
161	  CA	0.760	2.264	3.227	C.3	39	ASN194	0.000	
162	  CB	1.998	1.474	2.775	C.3	39	ASN194	0.000	
163	  CG	1.760	-0.023	2.706	C.3	39	ASN194	0.000	
164	  CB	-3.045	7.271	1.709	C.3	40	VAL196	0.000	
165	 CG1	-1.908	7.081	2.707	C.3	40	VAL196	0.000	
166	 CG2	-2.512	7.301	0.288	C.3	40	VAL196	0.000	
167	  CD	-3.583	8.640	-5.113	C.3	41	LYS204	0.000	
168	  CE	-4.461	9.684	-5.801	C.3	41	LYS204	0.000	
169	  NZ	-4.949	9.236	-7.135	N.4	41	LYS204	0.000	
170	   C	-0.076	3.488	-2.945	C.2	42	ILE205	0.000	
171	   O	0.137	4.152	-3.955	O.2	42	ILE205	0.000	
172	 CG2	-0.098	0.591	-2.855	C.3	42	ILE205	0.000	
173	   N	0.807	3.377	-1.960	N.am	43	LEU206	0.000	
174	  CA	2.188	3.823	-2.121	C.3	43	LEU206	0.000	
175	   C	3.138	2.777	-1.545	C.2	43	LEU206	0.000	
176	   O	2.695	1.755	-1.022	O.2	43	LEU206	0.000	
177	  CB	2.408	5.190	-1.472	C.3	43	LEU206	0.000	
178	  CG	1.635	5.545	-0.199	C.3	43	LEU206	0.000	
179	 CD1	1.895	4.532	0.867	C.3	43	LEU206	0.000	
180	 CD2	2.023	6.922	0.304	C.3	43	LEU206	0.000	
181	   N	4.439	3.020	-1.662	N.am	44	ASP207	0.000	
182	  CA	5.450	2.122	-1.097	C.3	44	ASP207	0.000	
183	   C	5.514	0.757	-1.792	C.3	44	ASP207	0.000	
184	  CB	5.241	1.936	0.414	C.3	44	ASP207	0.000	
185	  CG	5.669	3.149	1.219	C.2	44	ASP207	0.000	
186	 OD1	6.367	4.022	0.661	O.co2	44	ASP207	0.000	
187	 OD2	5.320	3.225	2.417	O.co2	44	ASP207	0.000	
188	   N	5.759	0.762	-3.099	N.3	45	PHE208	0.000	
189	  CA	5.809	-0.464	-3.901	C.3	45	PHE208	0.000	
190	   C	6.667	-1.580	-3.285	C.2	45	PHE208	0.000	
191	   O	7.377	-2.289	-3.999	O.2	45	PHE208	0.000	
192	  CB	6.304	-0.155	-5.322	C.3	45	PHE208	0.000	
193	  CG	5.552	0.960	-6.002	C.2	45	PHE208	0.000	
194	 CD1	6.096	1.616	-7.099	C.2	45	PHE208	0.000	
195	 CD2	4.305	1.353	-5.544	C.2	45	PHE208	0.000	
196	 CE1	5.409	2.646	-7.720	C.2	45	PHE208	0.000	
197	 CE2	3.618	2.383	-6.153	C.2	45	PHE208	0.000	
198	  CZ	4.168	3.029	-7.244	C.2	45	PHE208	0.000	
199	   N	6.588	-1.732	-1.964	N.am	46	GLY209	0.000	
200	  CA	7.327	-2.758	-1.248	C.3	46	GLY209	0.000	
201	   C	8.755	-2.347	-0.947	C.2	46	GLY209	0.000	
202	   O	9.609	-2.369	-1.832	O.2	46	GLY209	0.000	
203	   N	2.144	7.106	10.486	N.3	47	THR221	0.000	
204	  CA	1.440	7.911	11.477	C.3	47	THR221	0.000	
205	   C	-0.046	8.008	11.135	C.2	47	THR221	0.000	
206	   O	-0.460	8.906	10.402	O.2	47	THR221	0.000	
207	  CB	2.034	9.329	11.573	C.3	47	THR221	0.000	
208	 CG2	1.678	9.971	12.910	C.3	47	THR221	0.000	
209	 OG1	3.459	9.263	11.435	O.3	47	THR221	0.000	
210	   N	-0.853	7.072	11.662	N.am	48	PRO222	0.000	
211	  CA	-0.400	5.982	12.534	C.3	48	PRO222	0.000	
212	   C	0.490	4.990	11.793	C.2	48	PRO222	0.000	
213	   O	0.483	4.954	10.562	O.2	48	PRO222	0.000	
214	  CB	-1.708	5.307	12.959	C.3	48	PRO222	0.000	
215	  CG	-2.675	5.641	11.879	C.3	48	PRO222	0.000	
216	  CD	-2.305	7.015	11.414	C.3	48	PRO222	0.000	
217	   N	1.255	4.204	12.541	N.am	49	TYR223	0.000	
218	  CA	2.178	3.257	11.946	C.3	49	TYR223	0.000	
219	  CB	3.618	3.640	12.289	C.3	49	TYR223	0.000	
220	   C	2.773	-1.279	11.004	C.2	50	VAL224	0.000	
221	   O	2.998	-1.150	9.800	O.2	50	VAL224	0.000	
222	   N	3.475	-2.096	11.780	N.am	51	VAL225	0.000	
223	  CA	4.520	-2.930	11.211	C.3	51	VAL225	0.000	
224	   C	3.919	-3.844	10.162	C.2	51	VAL225	0.000	
225	   O	2.801	-4.328	10.316	O.2	51	VAL225	0.000	
226	  CB	5.242	-3.798	12.280	C.3	51	VAL225	0.000	
227	 CG1	6.084	-2.932	13.196	C.3	51	VAL225	0.000	
228	   N	4.655	-4.070	9.083	N.am	52	THR226	0.000	
229	 CD1	11.378	-1.441	-12.207	C.3	53	TYR376	0.000	
230	 CD2	11.252	-3.781	-11.777	C.2	53	TYR376	0.000	
231	 CE1	12.526	-1.357	-11.434	C.2	53	TYR376	0.000	
232	 CE2	12.397	-3.707	-11.002	C.2	53	TYR376	0.000	
233	  CZ	13.029	-2.492	-10.834	C.2	53	TYR376	0.000	
234	  OH	14.168	-2.412	-10.065	O.3	53	TYR376	0.000	
@<TRIPOS>BOND
1 1 2 2
2 4 5 1
3 7 8 2
4 9 10 1
5 12 13 1
6 16 18 1
7 18 19 1
8 19 20 1
9 20 21 2
10 24 25 2
11 27 28 1
12 28 29 1
13 30 31 2
14 30 37 1
15 33 34 1
16 34 35 2
17 34 36 1
18 37 38 1
19 38 39 1
20 38 41 1
21 39 40 2
22 39 46 1
23 41 42 1
24 42 43 1
25 43 44 2
26 43 45 1
27 46 47 1
28 47 48 1
29 48 49 2
30 50 51 1
31 50 53 1
32 51 52 2
33 51 57 1
34 53 54 1
35 54 55 1
36 54 56 1
37 57 58 1
38 58 59 1
39 58 61 1
40 59 60 2
41 59 65 1
42 61 62 1
43 62 63 1
44 63 64 1
45 66 67 2
46 68 69 1
47 68 70 1
48 71 72 1
49 71 74 1
50 72 73 2
51 72 78 1
52 74 75 1
53 74 76 1
54 75 77 1
55 78 79 1
56 80 81 1
57 81 82 1
58 82 83 1
59 84 85 1
60 85 86 1
61 85 88 1
62 86 87 2
63 86 93 1
64 88 89 1
65 89 90 1
66 90 91 2
67 90 92 1
68 93 94 1
69 94 95 1
70 94 97 1
71 95 96 2
72 95 101 1
73 97 98 1
74 98 99 1
75 98 100 1
76 101 102 1
77 102 103 1
78 102 105 1
79 103 104 2
80 103 107 1
81 105 106 1
82 107 108 1
83 108 109 1
84 108 111 1
85 109 110 2
86 109 114 1
87 111 112 1
88 112 113 2
89 114 115 1
90 115 116 1
91 115 118 1
92 116 117 2
93 116 119 1
94 119 120 1
95 120 121 1
96 121 122 1
97 122 123 1
98 122 124 2
99 125 126 1
100 128 129 1
101 128 130 1
102 132 133 1
103 133 134 1
104 134 135 2
105 134 136 1
106 136 137 1
107 137 138 1
108 137 140 1
109 138 139 2
110 138 144 1
111 140 141 1
112 140 142 1
113 141 143 1
114 144 145 1
115 147 149 1
116 148 150 1
117 149 152 1
118 150 151 2
119 150 153 1
120 154 155 1
121 156 157 1
122 156 159 1
123 157 158 2
124 159 160 1
125 161 162 1
126 162 163 1
127 164 165 1
128 164 166 1
129 167 168 1
130 168 169 1
131 170 171 2
132 170 173 1
133 173 174 1
134 174 175 1
135 174 177 1
136 175 176 2
137 175 181 1
138 177 178 1
139 178 179 1
140 178 180 1
141 181 182 1
142 182 183 1
143 182 184 1
144 183 188 1
145 184 185 1
146 185 186 2
147 185 187 1
148 188 189 1
149 189 190 1
150 189 192 1
151 190 191 2
152 190 199 1
153 192 193 1
154 193 194 2
155 193 195 1
156 194 196 1
157 195 197 2
158 196 198 2
159 197 198 1
160 199 200 1
161 200 201 1
162 201 202 2
163 203 204 1
164 204 205 1
165 204 207 1
166 205 206 2
167 205 210 1
168 207 208 1
169 207 209 1
170 210 211 1
171 210 216 1
172 211 212 1
173 211 214 1
174 212 213 2
175 212 217 1
176 214 215 1
177 215 216 1
178 217 218 1
179 218 219 1
180 220 221 2
181 220 222 1
182 222 223 1
183 223 224 1
184 223 226 1
185 224 225 2
186 224 228 1
187 226 227 1
188 229 231 1
189 230 232 2
190 231 233 2
191 232 233 1
192 233 234 1
@<TRIPOS>SUBSTRUCTURE
1	ASN66	1	RESIDUE	1 A	ASN
2	LYS68	4	RESIDUE	1 A	LYS
3	ILE70	7	RESIDUE	1 A	ILE
4	GLY71	11	RESIDUE	1 A	GLY
5	GLY73	12	RESIDUE	1 A	GLY
6	ALA74	14	RESIDUE	1 A	ALA
7	GLN75	15	RESIDUE	1 A	GLN
8	GLY76	18	RESIDUE	1 A	GLY
9	ALA80	22	RESIDUE	1 A	ALA
10	ASN89	23	RESIDUE	1 A	ASN
11	ALA91	24	RESIDUE	1 A	ALA
12	LYS93	27	RESIDUE	1 A	LYS
13	ARG110	30	RESIDUE	1 A	ARG
14	GLU111	37	RESIDUE	1 A	GLU
15	LEU112	46	RESIDUE	1 A	LEU
16	LEU114	50	RESIDUE	1 A	LEU
17	MET115	57	RESIDUE	1 A	MET
18	LYS116	65	RESIDUE	1 A	LYS
19	HIS120	66	RESIDUE	1 A	HIS
20	ILE123	68	RESIDUE	1 A	ILE
21	ILE124	71	RESIDUE	1 A	ILE
22	SER125	78	RESIDUE	1 A	SER
23	MET146	80	RESIDUE	1 A	MET
24	GLU147	84	RESIDUE	1 A	GLU
25	LEU148	93	RESIDUE	1 A	LEU
26	MET149	101	RESIDUE	1 A	MET
27	ASP150	107	RESIDUE	1 A	ASP
28	ALA151	114	RESIDUE	1 A	ALA
29	ASN152	119	RESIDUE	1 A	ASN
30	CYS154	125	RESIDUE	1 A	CYS
31	LEU180	127	RESIDUE	1 A	LEU
32	HIS181	131	RESIDUE	1 A	HIS
33	GLY184	132	RESIDUE	1 A	GLY
34	ILE185	136	RESIDUE	1 A	ILE
35	ILE186	144	RESIDUE	1 A	ILE
36	ASP189	147	RESIDUE	1 A	ASP
37	LYS191	154	RESIDUE	1 A	LYS
38	SER193	156	RESIDUE	1 A	SER
39	ASN194	161	RESIDUE	1 A	ASN
40	VAL196	164	RESIDUE	1 A	VAL
41	LYS204	167	RESIDUE	1 A	LYS
42	ILE205	170	RESIDUE	1 A	ILE
43	LEU206	173	RESIDUE	1 A	LEU
44	ASP207	181	RESIDUE	1 A	ASP
45	PHE208	188	RESIDUE	1 A	PHE
46	GLY209	199	RESIDUE	1 A	GLY
47	THR221	203	RESIDUE	1 A	THR
48	PRO222	210	RESIDUE	1 A	PRO
49	TYR223	217	RESIDUE	1 A	TYR
50	VAL224	220	RESIDUE	1 A	VAL
51	VAL225	222	RESIDUE	1 A	VAL
52	THR226	228	RESIDUE	1 A	THR
53	TYR376	229	RESIDUE	1 A	TYR
