# created with PyMOL 2.5.4
@<TRIPOS>MOLECULE
5CEM_A_aligned_pocket
208 179 42              
SMALL
USER_CHARGES
@<TRIPOS>ATOM
1	  CG	10.393	11.956	5.003	C.3	1	GLU103	0.000	
2	 CG2	7.649	13.833	0.264	C.3	2	VAL105	0.000	
3	  CB	8.618	13.338	-3.677	C.3	3	LYS120	0.000	
4	  CD	8.952	11.314	-2.188	C.3	3	LYS120	0.000	
5	  CE	10.017	10.465	-1.491	C.3	3	LYS120	0.000	
6	  NZ	9.476	9.217	-0.875	N.4	3	LYS120	0.000	
7	  CG	12.011	9.872	-6.619	C.2	4	PHE122	0.000	
8	 CD1	12.032	8.938	-5.585	C.2	4	PHE122	0.000	
9	 CE1	10.907	8.715	-4.806	C.2	4	PHE122	0.000	
10	 CE2	9.705	10.343	-6.114	C.3	4	PHE122	0.000	
11	  CZ	9.740	9.415	-5.071	C.2	4	PHE122	0.000	
12	   C	13.633	5.464	-9.807	C.2	5	HIS126	0.000	
13	   O	12.732	4.629	-9.632	O.2	5	HIS126	0.000	
14	  CB	15.353	5.741	-7.978	C.3	5	HIS126	0.000	
15	  CG	14.436	5.212	-6.928	C.2	5	HIS126	0.000	
16	 CD2	13.245	5.668	-6.477	C.2	5	HIS126	0.000	
17	 ND1	14.692	4.049	-6.230	N.2	5	HIS126	0.000	
18	 CE1	13.702	3.819	-5.388	C.2	5	HIS126	0.000	
19	 NE2	12.812	4.788	-5.519	N.pl3	5	HIS126	0.000	
20	  CA	12.104	7.055	-10.874	C.3	6	TYR127	0.000	
21	 CD1	9.687	9.002	-11.706	C.3	6	TYR127	0.000	
22	   C	11.382	1.463	-11.381	C.2	7	ASP129	0.000	
23	   O	10.669	0.479	-11.550	O.2	7	ASP129	0.000	
24	  CB	13.850	1.157	-11.566	C.3	7	ASP129	0.000	
25	   N	11.139	2.382	-10.441	N.am	8	LYS130	0.000	
26	  CA	10.147	2.143	-9.372	C.3	8	LYS130	0.000	
27	   C	8.874	2.978	-9.401	C.2	8	LYS130	0.000	
28	   O	7.878	2.573	-8.815	O.2	8	LYS130	0.000	
29	  CB	10.811	2.330	-7.998	C.3	8	LYS130	0.000	
30	  CG	12.063	1.498	-7.771	C.3	8	LYS130	0.000	
31	  CD	11.799	-0.004	-7.881	C.3	8	LYS130	0.000	
32	  CE	13.092	-0.804	-7.896	C.3	8	LYS130	0.000	
33	  NZ	13.977	-0.469	-6.745	N.4	8	LYS130	0.000	
34	   N	8.903	4.154	-10.027	N.am	9	ILE131	0.000	
35	  CA	7.747	5.059	-9.995	C.3	9	ILE131	0.000	
36	   C	7.054	5.104	-11.358	C.2	9	ILE131	0.000	
37	   O	5.834	4.983	-11.433	O.2	9	ILE131	0.000	
38	  CB	8.159	6.505	-9.594	C.3	9	ILE131	0.000	
39	 CG1	9.081	6.528	-8.357	C.3	9	ILE131	0.000	
40	 CG2	6.927	7.387	-9.425	C.3	9	ILE131	0.000	
41	 CD1	8.530	5.844	-7.132	C.3	9	ILE131	0.000	
42	   N	7.839	5.280	-12.420	N.am	10	ARG132	0.000	
43	  CB	6.186	0.777	-13.638	C.3	11	PRO133	0.000	
44	  CG	7.663	1.002	-13.593	C.3	11	PRO133	0.000	
45	  CD	7.802	2.479	-13.320	C.3	11	PRO133	0.000	
46	  CB	2.823	3.606	-10.667	C.3	12	TYR134	0.000	
47	  CG	3.222	2.506	-9.714	C.2	12	TYR134	0.000	
48	 CD1	2.279	1.586	-9.269	C.2	12	TYR134	0.000	
49	 CD2	4.535	2.379	-9.253	C.2	12	TYR134	0.000	
50	 CE1	2.625	0.568	-8.401	C.2	12	TYR134	0.000	
51	 CE2	4.892	1.354	-8.382	C.2	12	TYR134	0.000	
52	  CZ	3.924	0.457	-7.953	C.2	12	TYR134	0.000	
53	  OH	4.232	-0.571	-7.101	O.3	12	TYR134	0.000	
54	  CA	-5.164	7.905	-12.436	C.3	13	ASN142	0.000	
55	   C	-5.217	7.236	-11.057	C.3	13	ASN142	0.000	
56	  CB	-4.775	9.396	-12.313	C.3	13	ASN142	0.000	
57	  CG	-3.276	9.616	-12.058	C.2	13	ASN142	0.000	
58	 OD1	-2.561	8.736	-11.554	O.2	13	ASN142	0.000	
59	   N	-4.572	6.071	-10.933	N.3	14	ILE143	0.000	
60	   C	-3.553	5.992	-8.646	C.3	14	ILE143	0.000	
61	   N	-2.634	6.832	-9.138	N.3	15	THR144	0.000	
62	  CA	-1.835	7.712	-8.292	C.3	15	THR144	0.000	
63	   C	-2.500	9.096	-8.374	C.2	15	THR144	0.000	
64	   O	-3.540	9.266	-9.011	O.2	15	THR144	0.000	
65	  CB	-0.335	7.754	-8.715	C.3	15	THR144	0.000	
66	 CG2	0.202	6.343	-9.051	C.3	15	THR144	0.000	
67	 OG1	-0.139	8.635	-9.838	O.3	15	THR144	0.000	
68	   N	-1.918	10.067	-7.700	N.am	16	GLY145	0.000	
69	  CA	-2.390	11.448	-7.773	C.3	16	GLY145	0.000	
70	   C	-1.296	12.317	-8.343	C.3	16	GLY145	0.000	
71	 CD2	1.902	13.629	-3.855	C.2	17	PHE160	0.000	
72	 CE1	4.614	14.198	-3.878	C.2	17	PHE160	0.000	
73	 CE2	2.627	13.624	-2.667	C.2	17	PHE160	0.000	
74	  CZ	3.984	13.905	-2.684	C.2	17	PHE160	0.000	
75	   O	-1.351	14.757	-3.462	O.3	18	GLU161	0.000	
76	  CA	-2.203	16.586	-1.503	C.3	19	LYS162	0.000	
77	   C	-3.281	15.535	-1.365	C.3	19	LYS162	0.000	
78	  CB	-2.709	17.832	-0.775	C.3	19	LYS162	0.000	
79	  CG	-1.681	18.926	-0.604	C.3	19	LYS162	0.000	
80	  CD	-2.316	20.199	-0.041	C.3	19	LYS162	0.000	
81	  CE	-2.702	20.055	1.427	C.3	19	LYS162	0.000	
82	  NZ	-2.937	21.388	2.063	N.4	19	LYS162	0.000	
83	   N	-3.125	14.640	-0.413	N.3	20	ASP163	0.000	
84	  CA	-4.162	13.651	-0.151	C.3	20	ASP163	0.000	
85	   C	-4.964	14.042	1.096	C.2	20	ASP163	0.000	
86	   O	-4.591	14.963	1.820	O.2	20	ASP163	0.000	
87	  CB	-3.556	12.240	-0.062	C.3	20	ASP163	0.000	
88	  CG	-2.772	12.001	1.213	C.2	20	ASP163	0.000	
89	 OD1	-3.354	12.109	2.299	O.co2	20	ASP163	0.000	
90	 OD2	-1.582	11.638	1.119	O.co2	20	ASP163	0.000	
91	   N	-6.059	13.322	1.349	N.am	21	PHE164	0.000	
92	  CA	-6.907	13.608	2.492	C.3	21	PHE164	0.000	
93	   C	-6.906	12.496	3.556	C.2	21	PHE164	0.000	
94	   O	-7.901	12.277	4.239	O.2	21	PHE164	0.000	
95	  CB	-8.300	13.998	1.986	C.3	21	PHE164	0.000	
96	  CG	-8.294	15.288	1.206	C.3	21	PHE164	0.000	
97	 CD2	-8.533	16.509	1.847	C.3	21	PHE164	0.000	
98	   N	-5.756	11.846	3.725	N.am	22	GLY165	0.000	
99	  CA	-5.561	10.817	4.743	C.3	22	GLY165	0.000	
100	   C	-5.496	9.416	4.171	C.3	22	GLY165	0.000	
101	   N	-4.971	8.492	4.965	N.3	23	ASP166	0.000	
102	  CA	-4.768	7.113	4.538	C.3	23	ASP166	0.000	
103	  CB	-3.344	6.667	4.874	C.3	23	ASP166	0.000	
104	  CG	-3.118	6.539	6.361	C.2	23	ASP166	0.000	
105	 OD1	-2.732	7.520	7.002	O.co2	23	ASP166	0.000	
106	 OD2	-3.406	5.479	6.910	O.co2	23	ASP166	0.000	
107	  CB	-3.484	2.831	8.436	C.3	24	HIS168	0.000	
108	  CG	-3.094	2.533	9.843	C.2	24	HIS168	0.000	
109	 CD2	-2.850	1.367	10.467	C.2	24	HIS168	0.000	
110	 ND1	-2.945	3.515	10.798	N.2	24	HIS168	0.000	
111	 CE1	-2.613	2.960	11.946	C.2	24	HIS168	0.000	
112	  CB	-5.492	7.581	9.585	C.3	25	SER169	0.000	
113	  OG	-4.075	7.615	9.743	O.3	25	SER169	0.000	
114	  CZ	-4.578	6.762	14.021	C.2	26	ARG172	0.000	
115	 NH1	-3.952	6.204	12.980	N.pl3	26	ARG172	0.000	
116	 NH2	-4.547	8.088	14.143	N.pl3	26	ARG172	0.000	
117	   C	4.400	-6.286	-13.279	C.2	27	ALA200	0.000	
118	   O	5.608	-6.324	-13.079	O.2	27	ALA200	0.000	
119	   N	3.578	-5.518	-12.568	N.am	28	ILE201	0.000	
120	  CA	4.033	-4.728	-11.419	C.3	28	ILE201	0.000	
121	   C	3.551	-5.392	-10.131	C.2	28	ILE201	0.000	
122	   O	2.360	-5.393	-9.829	O.2	28	ILE201	0.000	
123	  CB	3.528	-3.265	-11.466	C.3	28	ILE201	0.000	
124	 CG1	4.090	-2.563	-12.705	C.3	28	ILE201	0.000	
125	 CG2	3.933	-2.518	-10.193	C.3	28	ILE201	0.000	
126	   N	4.496	-5.963	-9.399	N.am	29	VAL202	0.000	
127	  CA	4.277	-6.439	-8.036	C.3	29	VAL202	0.000	
128	   C	4.503	-5.262	-7.099	C.2	29	VAL202	0.000	
129	   O	5.495	-4.570	-7.216	O.2	29	VAL202	0.000	
130	  CB	5.274	-7.562	-7.700	C.3	29	VAL202	0.000	
131	 CG2	4.995	-8.759	-8.600	C.3	29	VAL202	0.000	
132	   N	3.593	-5.051	-6.158	N.am	30	LEU203	0.000	
133	  CA	3.729	-3.962	-5.199	C.3	30	LEU203	0.000	
134	   C	4.650	-4.384	-4.057	C.2	30	LEU203	0.000	
135	   O	5.613	-3.696	-3.769	O.2	30	LEU203	0.000	
136	  CB	2.362	-3.521	-4.675	C.3	30	LEU203	0.000	
137	  CG	1.499	-2.788	-5.716	C.3	30	LEU203	0.000	
138	 OD1	4.236	-1.747	-1.939	O.3	31	ASP205	0.000	
139	  CA	-1.524	2.998	4.673	C.3	32	ARG209	0.000	
140	   C	-0.979	3.277	3.264	C.2	32	ARG209	0.000	
141	   O	-0.606	4.387	2.950	O.2	32	ARG209	0.000	
142	  CB	-0.461	3.202	5.753	C.3	32	ARG209	0.000	
143	  CG	0.816	2.401	5.568	C.3	32	ARG209	0.000	
144	  CD	1.625	2.391	6.856	C.3	32	ARG209	0.000	
145	  NE	0.945	1.633	7.908	N.pl3	32	ARG209	0.000	
146	  CZ	1.480	1.287	9.077	C.2	32	ARG209	0.000	
147	 NH1	2.739	1.601	9.381	N.pl3	32	ARG209	0.000	
148	  CD	1.930	1.499	-0.988	C.3	33	LYS210	0.000	
149	  CE	2.453	1.189	-2.386	C.3	33	LYS210	0.000	
150	  NZ	3.797	1.759	-2.643	N.4	33	LYS210	0.000	
151	  CB	-3.820	8.523	0.407	C.3	34	VAL212	0.000	
152	 CG1	-2.682	8.006	1.265	C.3	34	VAL212	0.000	
153	 CG2	-3.336	8.740	-1.025	C.3	34	VAL212	0.000	
154	  NE	-10.669	12.540	5.197	N.3	35	ARG218	0.000	
155	  CZ	-10.849	13.867	5.197	C.3	35	ARG218	0.000	
156	 NH2	-9.858	14.663	5.595	N.3	35	ARG218	0.000	
157	  CD	-3.425	9.494	-5.177	C.3	36	ARG222	0.000	
158	  CD	-3.984	9.885	-4.579	C.3	36	ARG222	0.000	
159	  NE	-2.879	10.620	-4.417	N.pl3	36	ARG222	0.000	
160	  NE	-4.673	10.858	-5.419	N.pl3	36	ARG222	0.000	
161	  CZ	-1.691	10.652	-3.801	C.cat	36	ARG222	0.000	
162	  CZ	-4.839	12.139	-5.107	C.cat	36	ARG222	0.000	
163	 NH1	-0.863	9.604	-3.811	N.pl3	36	ARG222	0.000	
164	 NH1	-4.366	12.618	-3.965	N.pl3	36	ARG222	0.000	
165	 NH2	-1.329	11.762	-3.163	N.pl3	36	ARG222	0.000	
166	 NH2	-5.471	12.935	-5.955	N.pl3	36	ARG222	0.000	
167	  CG	-0.629	2.485	-5.438	C.3	37	LEU223	0.000	
168	 CD1	-0.949	1.596	-4.256	C.3	37	LEU223	0.000	
169	 CD2	-0.343	1.681	-6.690	C.3	37	LEU223	0.000	
170	  CA	0.498	5.881	-2.624	C.3	38	GLU224	0.000	
171	   C	1.685	5.203	-3.262	C.2	38	GLU224	0.000	
172	   O	2.086	4.141	-2.837	O.2	38	GLU224	0.000	
173	  CB	0.605	5.941	-1.097	C.3	38	GLU224	0.000	
174	  CG	1.287	7.191	-0.575	C.3	38	GLU224	0.000	
175	  CD	2.705	7.312	-1.079	C.2	38	GLU224	0.000	
176	 OE1	3.520	6.441	-0.720	O.co2	38	GLU224	0.000	
177	 OE2	2.994	8.243	-1.868	O.co2	38	GLU224	0.000	
178	   N	2.220	5.795	-4.322	N.am	39	SER225	0.000	
179	  CA	3.267	5.147	-5.107	C.3	39	SER225	0.000	
180	   C	4.628	5.813	-4.986	C.2	39	SER225	0.000	
181	   O	5.562	5.420	-5.680	O.2	39	SER225	0.000	
182	  CB	2.840	5.145	-6.563	C.3	39	SER225	0.000	
183	  OG	2.801	6.476	-7.032	O.3	39	SER225	0.000	
184	   N	4.754	6.818	-4.121	N.am	40	LEU226	0.000	
185	  CA	5.988	7.614	-4.062	C.3	40	LEU226	0.000	
186	   C	6.843	7.296	-2.867	C.2	40	LEU226	0.000	
187	   O	7.778	8.052	-2.564	O.2	40	LEU226	0.000	
188	  CB	5.656	9.114	-4.116	C.3	40	LEU226	0.000	
189	  CG	4.908	9.475	-5.413	C.3	40	LEU226	0.000	
190	 CD1	4.630	10.973	-5.448	C.3	40	LEU226	0.000	
191	 CD2	5.710	9.026	-6.624	C.3	40	LEU226	0.000	
192	   N	6.554	6.157	-2.224	N.am	41	GLU227	0.000	
193	  CA	7.353	5.636	-1.118	C.3	41	GLU227	0.000	
194	   C	7.310	6.680	-0.034	C.2	41	GLU227	0.000	
195	   O	8.332	7.136	0.464	O.2	41	GLU227	0.000	
196	  CB	8.787	5.314	-1.575	C.3	41	GLU227	0.000	
197	  CG	8.836	4.436	-2.823	C.3	41	GLU227	0.000	
198	  CD	10.242	4.122	-3.294	C.2	41	GLU227	0.000	
199	 OE1	11.197	4.858	-2.942	O.co2	41	GLU227	0.000	
200	 OE2	10.385	3.132	-4.043	O.co2	41	GLU227	0.000	
201	   N	6.084	7.059	0.299	N.am	42	ASP228	0.000	
202	  CA	5.814	8.234	1.102	C.3	42	ASP228	0.000	
203	   C	4.626	7.912	2.021	C.2	42	ASP228	0.000	
204	   O	3.833	8.785	2.382	O.2	42	ASP228	0.000	
205	  CB	5.530	9.409	0.149	C.3	42	ASP228	0.000	
206	  CG	5.295	10.732	0.869	C.2	42	ASP228	0.000	
207	 OD1	6.040	11.047	1.827	O.co2	42	ASP228	0.000	
208	 OD2	4.348	11.456	0.468	O.co2	42	ASP228	0.000	
@<TRIPOS>BOND
1 4 5 1
2 5 6 1
3 7 8 2
4 8 9 1
5 9 11 2
6 10 11 1
7 12 13 2
8 14 15 1
9 15 16 2
10 15 17 1
11 16 19 1
12 17 18 2
13 18 19 1
14 22 23 2
15 22 25 1
16 25 26 1
17 26 27 1
18 26 29 1
19 27 28 2
20 27 34 1
21 29 30 1
22 30 31 1
23 31 32 1
24 32 33 1
25 34 35 1
26 35 36 1
27 35 38 1
28 36 37 2
29 36 42 1
30 38 39 1
31 38 40 1
32 39 41 1
33 43 44 1
34 44 45 1
35 46 47 1
36 47 48 2
37 47 49 1
38 48 50 1
39 49 51 2
40 50 52 2
41 51 52 1
42 52 53 1
43 54 55 1
44 54 56 1
45 55 59 1
46 56 57 1
47 57 58 2
48 60 61 1
49 61 62 1
50 62 63 1
51 62 65 1
52 63 64 2
53 63 68 1
54 65 66 1
55 65 67 1
56 68 69 1
57 69 70 1
58 71 73 2
59 72 74 2
60 73 74 1
61 76 77 1
62 76 78 1
63 77 83 1
64 78 79 1
65 79 80 1
66 80 81 1
67 81 82 1
68 83 84 1
69 84 85 1
70 84 87 1
71 85 86 2
72 85 91 1
73 87 88 1
74 88 89 2
75 88 90 1
76 91 92 1
77 92 93 1
78 92 95 1
79 93 94 2
80 93 98 1
81 95 96 1
82 96 97 1
83 98 99 1
84 99 100 1
85 100 101 1
86 101 102 1
87 102 103 1
88 103 104 1
89 104 105 2
90 104 106 1
91 107 108 1
92 108 109 2
93 108 110 1
94 110 111 2
95 112 113 1
96 114 115 2
97 114 116 1
98 117 118 2
99 117 119 1
100 119 120 1
101 120 121 1
102 120 123 1
103 121 122 2
104 121 126 1
105 123 124 1
106 123 125 1
107 126 127 1
108 127 128 1
109 127 130 1
110 128 129 2
111 128 132 1
112 130 131 1
113 132 133 1
114 133 134 1
115 133 136 1
116 134 135 2
117 136 137 1
118 139 140 1
119 139 142 1
120 140 141 2
121 142 143 1
122 143 144 1
123 144 145 1
124 145 146 1
125 146 147 2
126 148 149 1
127 149 150 1
128 151 152 1
129 151 153 1
130 154 155 1
131 155 156 1
132 157 159 1
133 158 160 1
134 159 161 1
135 160 162 1
136 161 163 2
137 161 165 1
138 162 164 2
139 162 166 1
140 167 168 1
141 167 169 1
142 170 171 1
143 170 173 1
144 171 172 2
145 171 178 1
146 173 174 1
147 174 175 1
148 175 176 2
149 175 177 1
150 178 179 1
151 179 180 1
152 179 182 1
153 180 181 2
154 180 184 1
155 182 183 1
156 184 185 1
157 185 186 1
158 185 188 1
159 186 187 2
160 186 192 1
161 188 189 1
162 189 190 1
163 189 191 1
164 192 193 1
165 193 194 1
166 193 196 1
167 194 195 2
168 194 201 1
169 196 197 1
170 197 198 1
171 198 199 2
172 198 200 1
173 201 202 1
174 202 203 1
175 202 205 1
176 203 204 2
177 205 206 1
178 206 207 2
179 206 208 1
@<TRIPOS>SUBSTRUCTURE
1	GLU103	1	RESIDUE	1 A	GLU
2	VAL105	2	RESIDUE	1 A	VAL
3	LYS120	3	RESIDUE	1 A	LYS
4	PHE122	7	RESIDUE	1 A	PHE
5	HIS126	12	RESIDUE	1 A	HIS
6	TYR127	20	RESIDUE	1 A	TYR
7	ASP129	22	RESIDUE	1 A	ASP
8	LYS130	25	RESIDUE	1 A	LYS
9	ILE131	34	RESIDUE	1 A	ILE
10	ARG132	42	RESIDUE	1 A	ARG
11	PRO133	43	RESIDUE	1 A	PRO
12	TYR134	46	RESIDUE	1 A	TYR
13	ASN142	54	RESIDUE	1 A	ASN
14	ILE143	59	RESIDUE	1 A	ILE
15	THR144	61	RESIDUE	1 A	THR
16	GLY145	68	RESIDUE	1 A	GLY
17	PHE160	71	RESIDUE	1 A	PHE
18	GLU161	75	RESIDUE	1 A	GLU
19	LYS162	76	RESIDUE	1 A	LYS
20	ASP163	83	RESIDUE	1 A	ASP
21	PHE164	91	RESIDUE	1 A	PHE
22	GLY165	98	RESIDUE	1 A	GLY
23	ASP166	101	RESIDUE	1 A	ASP
24	HIS168	107	RESIDUE	1 A	HIS
25	SER169	112	RESIDUE	1 A	SER
26	ARG172	114	RESIDUE	1 A	ARG
27	ALA200	117	RESIDUE	1 A	ALA
28	ILE201	119	RESIDUE	1 A	ILE
29	VAL202	126	RESIDUE	1 A	VAL
30	LEU203	132	RESIDUE	1 A	LEU
31	ASP205	138	RESIDUE	1 A	ASP
32	ARG209	139	RESIDUE	1 A	ARG
33	LYS210	148	RESIDUE	1 A	LYS
34	VAL212	151	RESIDUE	1 A	VAL
35	ARG218	154	RESIDUE	1 A	ARG
36	ARG222	157	RESIDUE	1 A	ARG
37	LEU223	167	RESIDUE	1 A	LEU
38	GLU224	170	RESIDUE	1 A	GLU
39	SER225	178	RESIDUE	1 A	SER
40	LEU226	184	RESIDUE	1 A	LEU
41	GLU227	192	RESIDUE	1 A	GLU
42	ASP228	201	RESIDUE	1 A	ASP
