# created with PyMOL 2.5.4
@<TRIPOS>MOLECULE
5LOH_A_aligned_pocket
218 171 53              
SMALL
USER_CHARGES
@<TRIPOS>ATOM
1	  CA	4.481	24.101	5.086	C.3	1	VAL38	0.000	
2	  CB	3.064	23.990	4.493	C.3	1	VAL38	0.000	
3	 CG1	2.028	24.539	5.463	C.3	1	VAL38	0.000	
4	 CG2	2.988	24.713	3.158	C.3	1	VAL38	0.000	
5	   N	3.956	22.098	6.358	N.3	2	LYS39	0.000	
6	  CA	3.897	21.217	7.509	C.3	2	LYS39	0.000	
7	  CB	2.440	21.030	7.969	C.3	2	LYS39	0.000	
8	  CG	2.255	20.069	9.130	C.3	2	LYS39	0.000	
9	  CA	3.347	15.085	6.962	C.3	3	ILE41	0.000	
10	   C	3.693	13.989	7.964	C.2	3	ILE41	0.000	
11	   O	2.970	13.762	8.940	O.2	3	ILE41	0.000	
12	  CB	3.125	14.513	5.552	C.3	3	ILE41	0.000	
13	 CG1	2.972	15.645	4.530	C.3	3	ILE41	0.000	
14	 CG2	1.919	13.609	5.538	C.3	3	ILE41	0.000	
15	 CD1	1.549	16.131	4.352	C.3	3	ILE41	0.000	
16	   N	4.809	13.299	7.735	N.am	4	SER42	0.000	
17	  CA	5.317	12.301	8.671	C.3	4	SER42	0.000	
18	   C	6.760	11.934	8.342	C.2	4	SER42	0.000	
19	   O	7.024	10.888	7.746	O.2	4	SER42	0.000	
20	  CB	4.446	11.044	8.660	C.3	4	SER42	0.000	
21	  OG	4.700	10.250	9.807	O.3	4	SER42	0.000	
22	   N	12.231	8.747	4.420	N.3	5	GLY47	0.000	
23	  CA	11.179	8.259	5.294	C.3	5	GLY47	0.000	
24	   C	10.310	9.362	5.866	C.2	5	GLY47	0.000	
25	   O	9.487	9.125	6.752	O.2	5	GLY47	0.000	
26	   N	10.496	10.577	5.356	N.am	6	LYS48	0.000	
27	  CA	9.752	11.744	5.804	C.3	6	LYS48	0.000	
28	   C	9.031	12.381	4.624	C.3	6	LYS48	0.000	
29	   N	7.803	12.830	4.867	N.3	7	VAL49	0.000	
30	  CB	5.731	12.674	3.508	C.3	7	VAL49	0.000	
31	 CG1	4.906	13.373	2.439	C.3	7	VAL49	0.000	
32	 CG2	6.129	11.282	3.051	C.3	7	VAL49	0.000	
33	   O	4.405	21.591	2.898	O.3	8	LEU51	0.000	
34	  CG	1.091	20.542	2.777	C.3	8	LEU51	0.000	
35	 CD2	-0.144	20.691	3.653	C.3	8	LEU51	0.000	
36	   C	4.683	15.594	-1.369	C.2	9	ALA60	0.000	
37	   O	4.822	14.881	-2.368	O.2	9	ALA60	0.000	
38	  CB	2.440	14.723	-0.626	C.3	9	ALA60	0.000	
39	   N	5.708	16.083	-0.679	N.am	10	VAL61	0.000	
40	   N	8.076	13.769	-0.572	N.3	11	LYS62	0.000	
41	  CB	8.267	11.375	-0.055	C.3	11	LYS62	0.000	
42	   O	12.716	10.790	1.965	O.3	12	VAL63	0.000	
43	  CB	14.630	9.056	-0.702	C.3	13	VAL64	0.000	
44	 CG1	13.353	8.293	-0.391	C.3	13	VAL64	0.000	
45	   O	6.881	6.298	-13.333	O.3	14	ALA86	0.000	
46	   N	-2.827	6.586	-13.209	N.3	15	SER90	0.000	
47	   C	-4.820	6.357	-11.862	C.2	15	SER90	0.000	
48	   O	-4.293	7.055	-10.987	O.2	15	SER90	0.000	
49	   O	-2.457	7.695	-8.239	O.3	16	ILE93	0.000	
50	 CD1	-1.188	2.289	-8.260	C.3	16	ILE93	0.000	
51	  CA	-0.774	8.444	-6.159	C.3	17	VAL94	0.000	
52	   C	0.056	9.001	-7.306	C.2	17	VAL94	0.000	
53	   O	1.172	8.538	-7.562	O.2	17	VAL94	0.000	
54	  CB	0.005	8.495	-4.834	C.3	17	VAL94	0.000	
55	 CG1	0.599	9.879	-4.620	C.3	17	VAL94	0.000	
56	 CG2	-0.903	8.117	-3.685	C.3	17	VAL94	0.000	
57	   N	-0.488	9.994	-8.004	N.am	18	HIS95	0.000	
58	 CD1	7.171	10.285	-7.881	C.3	19	LEU96	0.000	
59	   O	7.893	14.172	-3.430	O.3	20	LEU108	0.000	
60	  CB	9.286	11.726	-4.419	C.3	20	LEU108	0.000	
61	 CD1	10.304	9.543	-3.736	C.3	20	LEU108	0.000	
62	 CD2	10.405	10.274	-6.132	C.3	20	LEU108	0.000	
63	  CB	3.302	12.463	-4.853	C.3	21	MET110	0.000	
64	  CG	4.589	11.659	-4.896	C.3	21	MET110	0.000	
65	  SD	4.724	10.509	-3.514	S.3	21	MET110	0.000	
66	  CE	5.103	11.632	-2.171	C.3	21	MET110	0.000	
67	   O	-0.265	13.794	-3.343	O.3	22	GLU111	0.000	
68	  CG	-1.619	12.965	-6.127	C.3	22	GLU111	0.000	
69	  CD	-2.901	12.516	-6.802	C.2	22	GLU111	0.000	
70	 OE1	-2.897	11.441	-7.438	O.co2	22	GLU111	0.000	
71	 OE2	-3.915	13.238	-6.695	O.co2	22	GLU111	0.000	
72	  CA	-1.444	15.878	-1.947	C.3	23	TYR112	0.000	
73	   C	-2.887	15.414	-1.792	C.3	23	TYR112	0.000	
74	  CB	-1.253	17.263	-1.328	C.3	23	TYR112	0.000	
75	  CG	-1.789	17.377	0.079	C.2	23	TYR112	0.000	
76	 CD1	-1.063	16.897	1.160	C.2	23	TYR112	0.000	
77	 CD2	-3.019	17.970	0.328	C.2	23	TYR112	0.000	
78	 CE1	-1.549	16.999	2.449	C.2	23	TYR112	0.000	
79	 CE2	-3.514	18.076	1.613	C.2	23	TYR112	0.000	
80	  CZ	-2.776	17.588	2.670	C.2	23	TYR112	0.000	
81	  OH	-3.268	17.693	3.950	O.3	23	TYR112	0.000	
82	   N	-3.094	14.416	-0.936	N.3	24	LEU113	0.000	
83	  CA	-4.417	13.868	-0.654	C.3	24	LEU113	0.000	
84	   C	-4.765	14.191	0.793	C.2	24	LEU113	0.000	
85	   O	-4.234	13.567	1.720	O.2	24	LEU113	0.000	
86	  CB	-4.457	12.362	-0.911	C.3	24	LEU113	0.000	
87	  CG	-3.983	11.857	-2.277	C.3	24	LEU113	0.000	
88	 CD2	-4.420	12.786	-3.402	C.3	24	LEU113	0.000	
89	   N	-5.661	15.163	0.985	N.am	25	ILE114	0.000	
90	  CA	-6.035	15.602	2.325	C.3	25	ILE114	0.000	
91	   C	-6.821	14.553	3.095	C.2	25	ILE114	0.000	
92	   O	-7.007	14.698	4.307	O.2	25	ILE114	0.000	
93	  CB	-6.844	16.915	2.245	C.3	25	ILE114	0.000	
94	 CG1	-6.617	17.766	3.498	C.3	25	ILE114	0.000	
95	 CG2	-8.327	16.627	2.037	C.3	25	ILE114	0.000	
96	 CD1	-7.446	19.032	3.536	C.3	25	ILE114	0.000	
97	   N	-7.276	13.492	2.428	N.am	26	GLY115	0.000	
98	  CA	-8.066	12.472	3.091	C.3	26	GLY115	0.000	
99	   C	-7.304	11.619	4.082	C.2	26	GLY115	0.000	
100	   O	-7.936	10.873	4.839	O.2	26	GLY115	0.000	
101	   N	-5.975	11.711	4.104	N.am	27	GLY116	0.000	
102	  CA	-5.194	10.874	4.994	C.3	27	GLY116	0.000	
103	   C	-5.079	9.453	4.467	C.2	27	GLY116	0.000	
104	   O	-5.171	9.199	3.266	O.2	27	GLY116	0.000	
105	   N	-4.882	8.516	5.388	N.am	28	ASP117	0.000	
106	  CA	-4.808	7.101	5.054	C.3	28	ASP117	0.000	
107	  CB	-3.507	6.479	5.585	C.3	28	ASP117	0.000	
108	  CG	-3.317	6.673	7.083	C.2	28	ASP117	0.000	
109	 OD1	-4.314	6.699	7.834	O.co2	28	ASP117	0.000	
110	 OD2	-2.151	6.794	7.513	O.co2	28	ASP117	0.000	
111	  CB	-4.284	3.009	9.133	C.3	29	LYS119	0.000	
112	  CB	-4.238	3.116	9.119	C.3	29	LYS119	0.000	
113	  CG	-4.021	2.431	10.514	C.3	29	LYS119	0.000	
114	  CD	-2.537	2.213	10.760	C.3	29	LYS119	0.000	
115	  CE	-1.773	3.524	10.728	C.3	29	LYS119	0.000	
116	  NZ	-0.357	3.345	11.147	N.4	29	LYS119	0.000	
117	  CB	-6.098	7.841	10.322	C.3	30	SER120	0.000	
118	  OG	-4.697	7.751	10.117	O.3	30	SER120	0.000	
119	 CD1	0.826	-1.212	-7.218	C.3	31	LEU147	0.000	
120	 CD2	1.838	-0.463	-9.378	C.3	31	LEU147	0.000	
121	 CD2	0.701	-7.204	-8.793	C.3	32	HIS148	0.000	
122	  CA	5.408	-5.901	-13.808	C.3	33	GLY151	0.000	
123	   C	5.815	-5.530	-12.404	C.2	33	GLY151	0.000	
124	   O	6.953	-5.807	-12.011	O.2	33	GLY151	0.000	
125	   N	4.922	-4.921	-11.627	N.am	34	ILE152	0.000	
126	  CA	5.231	-4.439	-10.286	C.3	34	ILE152	0.000	
127	   C	4.486	-5.292	-9.269	C.2	34	ILE152	0.000	
128	   O	3.282	-5.535	-9.411	O.2	34	ILE152	0.000	
129	  CB	4.864	-2.954	-10.121	C.3	34	ILE152	0.000	
130	 CG1	5.769	-2.082	-10.990	C.3	34	ILE152	0.000	
131	 CG2	4.953	-2.536	-8.659	C.3	34	ILE152	0.000	
132	 CD1	5.274	-0.663	-11.152	C.3	34	ILE152	0.000	
133	   N	5.206	-5.747	-8.248	N.am	35	ILE153	0.000	
134	  CA	4.611	-6.359	-7.066	C.3	35	ILE153	0.000	
135	   C	4.659	-5.322	-5.955	C.3	35	ILE153	0.000	
136	  CB	5.352	-7.641	-6.660	C.3	35	ILE153	0.000	
137	 CG1	5.294	-8.674	-7.783	C.3	35	ILE153	0.000	
138	  CA	3.434	-3.880	-4.437	C.3	36	HIS154	0.000	
139	   O	5.037	-3.367	-2.722	O.3	36	HIS154	0.000	
140	 CD2	1.186	-1.221	-3.417	C.3	36	HIS154	0.000	
141	 NE2	1.325	-0.451	-2.288	N.3	36	HIS154	0.000	
142	  CD	8.375	-7.187	-3.168	C.3	37	ARG155	0.000	
143	  CZ	9.001	-8.432	-5.202	C.3	37	ARG155	0.000	
144	 NH2	8.852	-7.340	-5.938	N.3	37	ARG155	0.000	
145	 OD1	4.899	-3.116	3.606	O.3	38	ASP156	0.000	
146	 OD2	5.317	-1.047	2.998	 O	38	ASP156	0.000	
147	  NZ	3.796	-2.348	6.772	N.4	39	LYS158	0.000	
148	  CA	-1.269	2.700	6.155	C.3	40	ASP160	0.000	
149	   C	-0.941	3.307	4.797	C.2	40	ASP160	0.000	
150	   O	-0.741	4.522	4.693	O.2	40	ASP160	0.000	
151	  CB	0.031	2.322	6.871	C.3	40	ASP160	0.000	
152	  CG	-0.203	1.531	8.145	C.3	40	ASP160	0.000	
153	 OD2	0.510	1.787	9.139	 O	40	ASP160	0.000	
154	   N	-0.880	2.484	3.752	N.am	41	ASN161	0.000	
155	  CA	-0.419	2.906	2.437	C.3	41	ASN161	0.000	
156	   C	-1.551	3.261	1.484	C.2	41	ASN161	0.000	
157	   O	-1.280	3.677	0.356	O.2	41	ASN161	0.000	
158	  CB	0.453	1.811	1.813	C.3	41	ASN161	0.000	
159	  CG	1.740	1.582	2.583	C.2	41	ASN161	0.000	
160	 ND2	2.273	0.368	2.499	N.pl3	41	ASN161	0.000	
161	 OD1	2.248	2.485	3.248	O.2	41	ASN161	0.000	
162	  CB	-3.617	8.165	0.086	C.3	42	LEU163	0.000	
163	  CG	-2.208	8.072	0.666	C.3	42	LEU163	0.000	
164	 CD1	-1.243	8.904	-0.157	C.3	42	LEU163	0.000	
165	 CD2	-2.193	8.507	2.126	C.3	42	LEU163	0.000	
166	  NZ	-5.203	10.401	-8.130	N.4	43	LYS171	0.000	
167	   O	-0.538	4.870	-4.556	O.3	44	LEU172	0.000	
168	   N	0.226	3.863	-2.690	N.3	45	THR173	0.000	
169	  CA	1.567	4.420	-2.770	C.3	45	THR173	0.000	
170	   C	2.504	3.501	-1.994	C.2	45	THR173	0.000	
171	   O	2.082	2.480	-1.443	O.2	45	THR173	0.000	
172	  CB	1.608	5.858	-2.238	C.3	45	THR173	0.000	
173	 CG2	1.466	5.880	-0.720	C.3	45	THR173	0.000	
174	 OG1	2.851	6.471	-2.607	O.3	45	THR173	0.000	
175	   N	3.787	3.871	-1.965	N.am	46	ASP174	0.000	
176	  CA	4.819	3.102	-1.264	C.3	46	ASP174	0.000	
177	   C	4.976	1.707	-1.871	C.3	46	ASP174	0.000	
178	  CB	4.522	3.018	0.237	C.3	46	ASP174	0.000	
179	  CG	5.775	3.090	1.086	C.2	46	ASP174	0.000	
180	 OD1	6.499	2.075	1.168	O.co2	46	ASP174	0.000	
181	 OD2	6.035	4.159	1.678	O.co2	46	ASP174	0.000	
182	   N	4.860	1.626	-3.201	N.3	47	PHE175	0.000	
183	  CA	5.003	0.374	-3.931	C.3	47	PHE175	0.000	
184	   C	6.308	0.268	-4.704	C.2	47	PHE175	0.000	
185	   O	6.746	-0.849	-5.001	O.2	47	PHE175	0.000	
186	  CB	3.827	0.190	-4.905	C.3	47	PHE175	0.000	
187	  CG	3.702	1.287	-5.933	C.2	47	PHE175	0.000	
188	 CD1	4.494	1.294	-7.073	C.2	47	PHE175	0.000	
189	 CD2	2.794	2.313	-5.752	C.2	47	PHE175	0.000	
190	 CE1	4.379	2.303	-8.010	C.2	47	PHE175	0.000	
191	 CE2	2.677	3.323	-6.685	C.2	47	PHE175	0.000	
192	  CZ	3.469	3.318	-7.816	C.2	47	PHE175	0.000	
193	   N	6.922	1.397	-5.040	N.am	48	GLY176	0.000	
194	  CA	8.175	1.447	-5.762	C.3	48	GLY176	0.000	
195	   C	8.685	2.869	-5.709	C.2	48	GLY176	0.000	
196	   O	9.888	3.126	-5.816	O.2	48	GLY176	0.000	
197	   N	7.747	3.806	-5.544	N.am	49	LEU177	0.000	
198	  CA	8.108	5.188	-5.250	C.3	49	LEU177	0.000	
199	   C	8.864	5.288	-3.934	C.2	49	LEU177	0.000	
200	   O	9.674	6.204	-3.748	O.2	49	LEU177	0.000	
201	  CB	6.852	6.062	-5.197	C.3	49	LEU177	0.000	
202	  CG	5.755	5.856	-6.247	C.3	49	LEU177	0.000	
203	 CD1	4.653	6.892	-6.074	C.3	49	LEU177	0.000	
204	 CD2	6.321	5.912	-7.660	C.3	49	LEU177	0.000	
205	   N	8.617	4.354	-3.012	N.am	50	SER178	0.000	
206	  CA	9.205	4.405	-1.677	C.3	50	SER178	0.000	
207	   C	9.700	3.063	-1.154	C.2	50	SER178	0.000	
208	   O	10.589	3.059	-0.296	O.2	50	SER178	0.000	
209	  CB	8.191	4.978	-0.681	C.3	50	SER178	0.000	
210	  OG	7.414	5.993	-1.292	O.3	50	SER178	0.000	
211	   N	9.171	1.934	-1.620	N.am	51	LYS179	0.000	
212	  CA	9.617	0.621	-1.158	C.3	51	LYS179	0.000	
213	   C	9.277	-0.464	-2.178	C.2	51	LYS179	0.000	
214	   O	8.353	-1.257	-1.978	O.2	51	LYS179	0.000	
215	  CB	8.997	0.291	0.194	C.3	51	LYS179	0.000	
216	   C	6.644	-4.432	11.155	C.2	52	GLY740	0.000	
217	   O	7.260	-3.397	10.898	O.2	52	GLY740	0.000	
218	   N	5.318	-4.463	11.271	N.am	53	THR741	0.000	
@<TRIPOS>BOND
1 1 2 1
2 2 3 1
3 2 4 1
4 5 6 1
5 6 7 1
6 7 8 1
7 9 10 1
8 9 12 1
9 10 11 2
10 10 16 1
11 12 13 1
12 12 14 1
13 13 15 1
14 16 17 1
15 17 18 1
16 17 20 1
17 18 19 2
18 20 21 1
19 22 23 1
20 23 24 1
21 24 25 2
22 24 26 1
23 26 27 1
24 27 28 1
25 28 29 1
26 30 31 1
27 30 32 1
28 34 35 1
29 36 37 2
30 36 39 1
31 43 44 1
32 47 48 2
33 51 52 1
34 51 54 1
35 52 53 2
36 52 57 1
37 54 55 1
38 54 56 1
39 63 64 1
40 64 65 1
41 65 66 1
42 68 69 1
43 69 70 2
44 69 71 1
45 72 73 1
46 72 74 1
47 73 82 1
48 74 75 1
49 75 76 2
50 75 77 1
51 76 78 1
52 77 79 2
53 78 80 2
54 79 80 1
55 80 81 1
56 82 83 1
57 83 84 1
58 83 86 1
59 84 85 2
60 84 89 1
61 86 87 1
62 87 88 1
63 89 90 1
64 90 91 1
65 90 93 1
66 91 92 2
67 91 97 1
68 93 94 1
69 93 95 1
70 94 96 1
71 97 98 1
72 98 99 1
73 99 100 2
74 99 101 1
75 101 102 1
76 102 103 1
77 103 104 2
78 103 105 1
79 105 106 1
80 106 107 1
81 107 108 1
82 108 109 2
83 108 110 1
84 111 113 1
85 113 114 1
86 114 115 1
87 115 116 1
88 117 118 1
89 122 123 1
90 123 124 2
91 123 125 1
92 125 126 1
93 126 127 1
94 126 129 1
95 127 128 2
96 127 133 1
97 129 130 1
98 129 131 1
99 130 132 1
100 133 134 1
101 134 135 1
102 134 136 1
103 136 137 1
104 140 141 1
105 143 144 1
106 148 149 1
107 148 151 1
108 149 150 2
109 149 154 1
110 151 152 1
111 152 153 1
112 154 155 1
113 155 156 1
114 155 158 1
115 156 157 2
116 158 159 1
117 159 160 1
118 159 161 2
119 162 163 1
120 163 164 1
121 163 165 1
122 168 169 1
123 169 170 1
124 169 172 1
125 170 171 2
126 170 175 1
127 172 173 1
128 172 174 1
129 175 176 1
130 176 177 1
131 176 178 1
132 177 182 1
133 178 179 1
134 179 180 2
135 179 181 1
136 182 183 1
137 183 184 1
138 183 186 1
139 184 185 2
140 184 193 1
141 186 187 1
142 187 188 2
143 187 189 1
144 188 190 1
145 189 191 2
146 190 192 2
147 191 192 1
148 193 194 1
149 194 195 1
150 195 196 2
151 195 197 1
152 197 198 1
153 198 199 1
154 198 201 1
155 199 200 2
156 199 205 1
157 201 202 1
158 202 203 1
159 202 204 1
160 205 206 1
161 206 207 1
162 206 209 1
163 207 208 2
164 207 211 1
165 209 210 1
166 211 212 1
167 212 213 1
168 212 215 1
169 213 214 2
170 216 217 2
171 216 218 1
@<TRIPOS>SUBSTRUCTURE
1	VAL38	1	RESIDUE	1 A	VAL
2	LYS39	5	RESIDUE	1 A	LYS
3	ILE41	9	RESIDUE	1 A	ILE
4	SER42	16	RESIDUE	1 A	SER
5	GLY47	22	RESIDUE	1 A	GLY
6	LYS48	26	RESIDUE	1 A	LYS
7	VAL49	29	RESIDUE	1 A	VAL
8	LEU51	33	RESIDUE	1 A	LEU
9	ALA60	36	RESIDUE	1 A	ALA
10	VAL61	39	RESIDUE	1 A	VAL
11	LYS62	40	RESIDUE	1 A	LYS
12	VAL63	42	RESIDUE	1 A	VAL
13	VAL64	43	RESIDUE	1 A	VAL
14	ALA86	45	RESIDUE	1 A	ALA
15	SER90	46	RESIDUE	1 A	SER
16	ILE93	49	RESIDUE	1 A	ILE
17	VAL94	51	RESIDUE	1 A	VAL
18	HIS95	57	RESIDUE	1 A	HIS
19	LEU96	58	RESIDUE	1 A	LEU
20	LEU108	59	RESIDUE	1 A	LEU
21	MET110	63	RESIDUE	1 A	MET
22	GLU111	67	RESIDUE	1 A	GLU
23	TYR112	72	RESIDUE	1 A	TYR
24	LEU113	82	RESIDUE	1 A	LEU
25	ILE114	89	RESIDUE	1 A	ILE
26	GLY115	97	RESIDUE	1 A	GLY
27	GLY116	101	RESIDUE	1 A	GLY
28	ASP117	105	RESIDUE	1 A	ASP
29	LYS119	111	RESIDUE	1 A	LYS
30	SER120	117	RESIDUE	1 A	SER
31	LEU147	119	RESIDUE	1 A	LEU
32	HIS148	121	RESIDUE	1 A	HIS
33	GLY151	122	RESIDUE	1 A	GLY
34	ILE152	125	RESIDUE	1 A	ILE
35	ILE153	133	RESIDUE	1 A	ILE
36	HIS154	138	RESIDUE	1 A	HIS
37	ARG155	142	RESIDUE	1 A	ARG
38	ASP156	145	RESIDUE	1 A	ASP
39	LYS158	147	RESIDUE	1 A	LYS
40	ASP160	148	RESIDUE	1 A	ASP
41	ASN161	154	RESIDUE	1 A	ASN
42	LEU163	162	RESIDUE	1 A	LEU
43	LYS171	166	RESIDUE	1 A	LYS
44	LEU172	167	RESIDUE	1 A	LEU
45	THR173	168	RESIDUE	1 A	THR
46	ASP174	175	RESIDUE	1 A	ASP
47	PHE175	182	RESIDUE	1 A	PHE
48	GLY176	193	RESIDUE	1 A	GLY
49	LEU177	197	RESIDUE	1 A	LEU
50	SER178	205	RESIDUE	1 A	SER
51	LYS179	211	RESIDUE	1 A	LYS
52	GLY740	216	RESIDUE	1 A	GLY
53	THR741	218	RESIDUE	1 A	THR
