# created with PyMOL 2.5.4
@<TRIPOS>MOLECULE
5WE8_B_aligned_pocket
235 192 55              
SMALL
USER_CHARGES
@<TRIPOS>ATOM
1	 CG2	3.068	23.290	7.141	C.3	1	ILE225	0.000	
2	 CD1	3.077	25.935	5.649	C.3	1	ILE225	0.000	
3	   O	1.728	15.556	7.443	O.3	2	ILE227	0.000	
4	 CG2	1.858	19.627	5.968	C.3	2	ILE227	0.000	
5	  CA	4.082	14.203	7.920	C.3	3	GLY228	0.000	
6	   C	5.475	13.814	8.364	C.3	3	GLY228	0.000	
7	   N	5.572	12.909	9.335	N.3	4	ARG229	0.000	
8	   C	6.868	10.997	10.082	C.2	4	ARG229	0.000	
9	   O	6.167	10.480	10.958	O.2	4	ARG229	0.000	
10	   N	7.653	10.296	9.267	N.am	5	GLY230	0.000	
11	  CA	7.929	8.893	9.459	C.3	5	GLY230	0.000	
12	   C	12.074	7.407	9.705	C.2	6	SER231	0.000	
13	   O	13.182	7.800	10.083	O.2	6	SER231	0.000	
14	  CB	11.063	5.611	11.124	C.3	6	SER231	0.000	
15	   N	11.772	7.266	8.415	N.am	7	PHE232	0.000	
16	  CA	12.780	7.391	7.371	C.3	7	PHE232	0.000	
17	   C	12.447	8.502	6.379	C.2	7	PHE232	0.000	
18	   O	13.032	8.554	5.294	O.2	7	PHE232	0.000	
19	  CB	12.959	6.045	6.665	C.3	7	PHE232	0.000	
20	  CG	12.949	4.867	7.606	C.2	7	PHE232	0.000	
21	 CD1	14.038	4.606	8.422	C.2	7	PHE232	0.000	
22	 CD2	11.847	4.029	7.682	C.2	7	PHE232	0.000	
23	 CE1	14.032	3.525	9.290	C.2	7	PHE232	0.000	
24	 CE2	11.836	2.945	8.549	C.2	7	PHE232	0.000	
25	  CZ	12.930	2.696	9.354	C.2	7	PHE232	0.000	
26	   N	11.536	9.405	6.735	N.am	8	LYS233	0.000	
27	  CA	11.227	10.539	5.872	C.3	8	LYS233	0.000	
28	   C	10.542	11.647	6.658	C.3	8	LYS233	0.000	
29	  CB	10.359	10.124	4.685	C.3	8	LYS233	0.000	
30	  CG	9.034	9.489	5.033	C.3	8	LYS233	0.000	
31	  CD	8.343	9.136	3.729	C.3	8	LYS233	0.000	
32	  CE	6.984	8.495	3.931	C.3	8	LYS233	0.000	
33	  NZ	6.331	8.206	2.619	N.4	8	LYS233	0.000	
34	  CB	5.648	14.419	4.245	C.3	9	VAL235	0.000	
35	 CG2	5.945	12.961	3.934	C.3	9	VAL235	0.000	
36	  CB	2.995	21.950	2.883	C.3	10	LYS237	0.000	
37	  CG	1.695	22.215	2.134	C.3	10	LYS237	0.000	
38	  CD	1.017	23.491	2.614	C.3	10	LYS237	0.000	
39	  CE	1.771	24.729	2.151	C.3	10	LYS237	0.000	
40	  NZ	0.970	25.970	2.350	N.4	10	LYS237	0.000	
41	   C	5.298	16.222	-1.267	C.2	11	ALA248	0.000	
42	   O	5.721	15.484	-2.163	O.2	11	ALA248	0.000	
43	  CB	3.377	14.802	-0.468	C.3	11	ALA248	0.000	
44	  SG	6.848	12.601	0.380	S.3	12	CYS250	0.000	
45	  CA	14.303	10.773	2.603	C.3	13	LEU252	0.000	
46	  CG	12.768	9.257	1.049	C.3	13	LEU252	0.000	
47	 CD1	12.059	8.536	2.194	C.3	13	LEU252	0.000	
48	 CD2	11.894	10.394	0.494	C.3	13	LEU252	0.000	
49	  CG	13.520	1.141	-10.290	C.3	14	GLU268	0.000	
50	  CD	13.959	0.510	-8.980	C.2	14	GLU268	0.000	
51	 OE1	14.311	1.258	-8.044	O.co2	14	GLU268	0.000	
52	 OE2	13.944	-0.737	-8.885	O.co2	14	GLU268	0.000	
53	  CA	11.861	6.952	-10.861	C.3	15	ALA269	0.000	
54	   O	9.949	7.686	-12.120	O.3	15	ALA269	0.000	
55	   N	8.082	5.254	-12.438	N.3	16	LEU272	0.000	
56	  CA	7.023	5.675	-11.525	C.3	16	LEU272	0.000	
57	   C	6.280	6.896	-12.058	C.2	16	LEU272	0.000	
58	   O	5.062	7.013	-11.886	O.2	16	LEU272	0.000	
59	  CB	7.609	5.966	-10.143	C.3	16	LEU272	0.000	
60	  CG	8.021	4.740	-9.327	C.3	16	LEU272	0.000	
61	 CD1	8.879	5.134	-8.130	C.3	16	LEU272	0.000	
62	 CD2	6.789	3.976	-8.882	C.3	16	LEU272	0.000	
63	   N	6.998	7.815	-12.706	N.am	17	LYS273	0.000	
64	   N	-3.153	6.239	-12.722	N.3	18	HIS277	0.000	
65	   O	-4.559	6.622	-10.453	O.3	18	HIS277	0.000	
66	   O	-2.558	7.235	-7.983	O.3	19	ILE280	0.000	
67	 CG2	-0.361	4.239	-8.010	C.3	19	ILE280	0.000	
68	  CA	-1.127	7.916	-5.699	C.3	20	VAL281	0.000	
69	   C	-0.148	8.304	-6.801	C.2	20	VAL281	0.000	
70	   O	0.686	7.496	-7.232	O.2	20	VAL281	0.000	
71	  CB	-0.437	7.903	-4.324	C.3	20	VAL281	0.000	
72	 CG1	0.341	9.197	-4.094	C.3	20	VAL281	0.000	
73	 CG2	-1.448	7.663	-3.217	C.3	20	VAL281	0.000	
74	   N	-0.246	9.547	-7.264	N.am	21	ARG282	0.000	
75	  NE	-1.231	10.220	-11.287	N.pl3	21	ARG282	0.000	
76	  CZ	-2.232	10.781	-11.958	C.2	21	ARG282	0.000	
77	 NH1	-3.475	10.343	-11.802	N.pl3	21	ARG282	0.000	
78	  CB	5.214	8.905	-8.585	C.3	22	PHE283	0.000	
79	  CG	6.680	9.065	-8.269	C.2	22	PHE283	0.000	
80	 CD1	7.160	8.814	-6.993	C.2	22	PHE283	0.000	
81	 CD2	7.583	9.427	-9.257	C.2	22	PHE283	0.000	
82	 CE1	8.506	8.946	-6.702	C.2	22	PHE283	0.000	
83	 CE2	8.932	9.560	-8.973	C.2	22	PHE283	0.000	
84	  CZ	9.394	9.319	-7.694	C.2	22	PHE283	0.000	
85	   O	8.687	14.152	-2.747	O.3	23	LEU299	0.000	
86	  CB	9.869	11.403	-3.386	C.3	23	LEU299	0.000	
87	 CD1	10.337	9.106	-2.539	C.3	23	LEU299	0.000	
88	   C	6.181	13.934	-5.528	C.3	24	VAL300	0.000	
89	   N	5.145	13.831	-4.696	N.3	25	THR301	0.000	
90	  CA	4.015	12.957	-4.968	C.3	25	THR301	0.000	
91	  CB	4.050	11.676	-4.121	C.3	25	THR301	0.000	
92	 CG2	5.382	10.944	-4.271	C.3	25	THR301	0.000	
93	 OG1	3.838	12.008	-2.744	O.3	25	THR301	0.000	
94	  CA	0.281	13.615	-4.948	C.3	26	GLU302	0.000	
95	   C	0.026	13.674	-3.446	C.2	26	GLU302	0.000	
96	   O	0.313	12.721	-2.718	O.2	26	GLU302	0.000	
97	  CB	-0.727	12.686	-5.629	C.3	26	GLU302	0.000	
98	  CG	-2.181	13.109	-5.553	C.3	26	GLU302	0.000	
99	  CD	-3.087	12.128	-6.278	C.2	26	GLU302	0.000	
100	 OE1	-2.574	11.102	-6.780	O.co2	26	GLU302	0.000	
101	 OE2	-4.308	12.377	-6.348	O.co2	26	GLU302	0.000	
102	   N	-0.502	14.806	-2.986	N.am	27	LEU303	0.000	
103	  CA	-0.792	15.015	-1.572	C.3	27	LEU303	0.000	
104	   C	-2.195	14.511	-1.253	C.2	27	LEU303	0.000	
105	   O	-3.166	14.915	-1.899	O.2	27	LEU303	0.000	
106	  CB	-0.671	16.495	-1.208	C.3	27	LEU303	0.000	
107	  CG	-0.930	16.858	0.254	C.3	27	LEU303	0.000	
108	 CD1	0.075	16.161	1.133	C.3	27	LEU303	0.000	
109	 CD2	-0.862	18.363	0.465	C.3	27	LEU303	0.000	
110	   N	-2.300	13.635	-0.257	N.am	28	MET304	0.000	
111	  CA	-3.574	13.022	0.099	C.3	28	MET304	0.000	
112	   C	-4.213	13.805	1.241	C.2	28	MET304	0.000	
113	   O	-3.652	13.885	2.340	O.2	28	MET304	0.000	
114	  CB	-3.387	11.550	0.461	C.3	28	MET304	0.000	
115	  CG	-2.724	10.733	-0.651	C.3	28	MET304	0.000	
116	  SD	-3.477	10.954	-2.283	S.3	28	MET304	0.000	
117	   N	-5.394	14.367	0.974	N.am	29	THR305	0.000	
118	  CA	-6.032	15.331	1.863	C.3	29	THR305	0.000	
119	   C	-6.726	14.698	3.063	C.2	29	THR305	0.000	
120	   O	-6.752	15.302	4.142	O.2	29	THR305	0.000	
121	  CB	-7.049	16.170	1.075	C.3	29	THR305	0.000	
122	 OG1	-7.695	17.100	1.950	O.3	29	THR305	0.000	
123	   N	-7.294	13.503	2.910	N.am	30	SER306	0.000	
124	  CA	-8.115	12.882	3.941	C.3	30	SER306	0.000	
125	   C	-7.364	11.813	4.724	C.2	30	SER306	0.000	
126	   O	-7.981	11.077	5.502	O.2	30	SER306	0.000	
127	   N	-6.054	11.712	4.534	N.am	31	GLY307	0.000	
128	  CA	-5.249	10.779	5.287	C.3	31	GLY307	0.000	
129	   C	-5.435	9.339	4.849	C.3	31	GLY307	0.000	
130	   N	-4.989	8.443	5.723	N.3	32	THR308	0.000	
131	  CA	-4.939	7.023	5.422	C.3	32	THR308	0.000	
132	  CB	-3.793	6.356	6.182	C.3	32	THR308	0.000	
133	 CG2	-2.481	7.062	5.882	C.3	32	THR308	0.000	
134	 OG1	-4.050	6.420	7.591	O.3	32	THR308	0.000	
135	  CG	-4.253	2.517	10.382	C.3	33	LYS310	0.000	
136	  CB	-6.187	7.802	9.977	C.3	34	THR311	0.000	
137	 CG2	-6.985	9.000	10.488	C.3	34	THR311	0.000	
138	 OG1	-4.842	7.881	10.461	O.3	34	THR311	0.000	
139	  NZ	-4.744	5.328	14.934	N.4	35	LYS314	0.000	
140	 NH1	-10.293	10.796	11.699	N.4	36	ARG315	0.000	
141	  CA	4.532	-6.198	-13.563	C.3	37	PRO344	0.000	
142	   C	5.193	-5.667	-12.301	C.2	37	PRO344	0.000	
143	   O	6.335	-6.006	-11.980	O.2	37	PRO344	0.000	
144	   N	4.458	-4.823	-11.584	N.am	38	ILE345	0.000	
145	  CA	4.915	-4.246	-10.327	C.3	38	ILE345	0.000	
146	   C	4.207	-4.963	-9.188	C.2	38	ILE345	0.000	
147	   O	2.980	-5.123	-9.210	O.2	38	ILE345	0.000	
148	  CB	4.644	-2.732	-10.278	C.3	38	ILE345	0.000	
149	 CG1	5.214	-2.041	-11.519	C.3	38	ILE345	0.000	
150	 CG2	5.225	-2.123	-9.011	C.3	38	ILE345	0.000	
151	 CD1	4.625	-0.660	-11.764	C.3	38	ILE345	0.000	
152	   N	4.978	-5.408	-8.200	N.am	39	ILE346	0.000	
153	  CA	4.447	-6.037	-6.995	C.3	39	ILE346	0.000	
154	   O	5.750	-4.638	-5.551	O.3	39	ILE346	0.000	
155	  CB	5.153	-7.367	-6.693	C.3	39	ILE346	0.000	
156	 CG1	5.028	-8.321	-7.884	C.3	39	ILE346	0.000	
157	  CA	3.571	-3.636	-4.178	C.3	40	HIS347	0.000	
158	  CB	2.158	-3.243	-3.748	C.3	40	HIS347	0.000	
159	  CG	2.102	-1.984	-2.941	C.2	40	HIS347	0.000	
160	 CD2	1.647	-0.746	-3.251	C.2	40	HIS347	0.000	
161	 NE2	1.823	0.042	-2.140	N.pl3	40	HIS347	0.000	
162	  NE	9.124	-6.245	-2.562	N.3	41	ARG348	0.000	
163	  CZ	10.443	-6.396	-2.623	C.3	41	ARG348	0.000	
164	 NH2	11.237	-5.341	-2.502	N.3	41	ARG348	0.000	
165	 OD1	5.175	-0.586	3.025	O.3	42	ASP349	0.000	
166	  CE	2.450	-0.120	6.078	C.3	43	LYS351	0.000	
167	  NZ	3.469	-0.134	7.164	N.4	43	LYS351	0.000	
168	  CA	-1.716	2.700	6.319	C.3	44	ASP353	0.000	
169	   C	-1.196	3.233	4.992	C.2	44	ASP353	0.000	
170	   O	-0.857	4.418	4.904	O.2	44	ASP353	0.000	
171	  CB	-0.540	2.470	7.268	C.3	44	ASP353	0.000	
172	  CG	-0.829	2.940	8.674	C.2	44	ASP353	0.000	
173	 OD1	-1.196	4.123	8.841	O.co2	44	ASP353	0.000	
174	 OD2	-0.689	2.128	9.612	O.co2	44	ASP353	0.000	
175	   N	-1.115	2.382	3.971	N.am	45	ASN354	0.000	
176	  CB	0.384	1.724	2.147	C.3	45	ASN354	0.000	
177	  CG	1.747	1.894	2.791	C.2	45	ASN354	0.000	
178	 ND2	2.577	0.853	2.720	N.pl3	45	ASN354	0.000	
179	 OD1	2.057	2.951	3.336	O.2	45	ASN354	0.000	
180	  CG	-2.961	7.634	1.135	C.2	46	PHE356	0.000	
181	 CD1	-2.055	6.752	0.570	C.2	46	PHE356	0.000	
182	 CD2	-2.566	8.390	2.223	C.2	46	PHE356	0.000	
183	 CE1	-0.786	6.618	1.091	C.2	46	PHE356	0.000	
184	 CE2	-1.297	8.261	2.745	C.2	46	PHE356	0.000	
185	  CZ	-0.405	7.376	2.181	C.2	46	PHE356	0.000	
186	  CA	0.357	4.786	-2.094	C.3	47	GLY367	0.000	
187	   C	1.588	4.052	-1.603	C.2	47	GLY367	0.000	
188	   O	1.538	2.845	-1.349	O.2	47	GLY367	0.000	
189	   N	2.699	4.781	-1.475	N.am	48	ASP368	0.000	
190	  CA	3.940	4.270	-0.901	C.3	48	ASP368	0.000	
191	   C	4.437	3.030	-1.634	C.2	48	ASP368	0.000	
192	   O	4.291	1.907	-1.141	O.2	48	ASP368	0.000	
193	  CB	3.756	3.970	0.590	C.3	48	ASP368	0.000	
194	  CG	3.714	5.232	1.435	C.2	48	ASP368	0.000	
195	 OD1	3.234	6.270	0.933	O.co2	48	ASP368	0.000	
196	 OD2	4.170	5.190	2.598	O.co2	48	ASP368	0.000	
197	   N	5.030	3.227	-2.809	N.am	49	LEU369	0.000	
198	  CA	5.584	2.137	-3.596	C.3	49	LEU369	0.000	
199	   C	7.070	1.917	-3.322	C.2	49	LEU369	0.000	
200	   O	7.760	1.311	-4.149	O.2	49	LEU369	0.000	
201	  CB	5.355	2.393	-5.087	C.3	49	LEU369	0.000	
202	  CG	4.027	1.901	-5.680	C.3	49	LEU369	0.000	
203	 CD1	2.830	2.477	-4.934	C.3	49	LEU369	0.000	
204	 CD2	3.947	2.237	-7.156	C.3	49	LEU369	0.000	
205	   N	7.568	2.385	-2.176	N.am	50	GLY370	0.000	
206	  CA	8.996	2.296	-1.905	C.3	50	GLY370	0.000	
207	   C	9.499	0.869	-1.787	C.2	50	GLY370	0.000	
208	   O	10.625	0.565	-2.188	O.2	50	GLY370	0.000	
209	   N	8.682	-0.022	-1.232	N.am	51	LEU371	0.000	
210	  CA	9.075	-1.413	-1.045	C.3	51	LEU371	0.000	
211	   C	8.722	-2.297	-2.233	C.2	51	LEU371	0.000	
212	   O	8.987	-3.504	-2.190	O.2	51	LEU371	0.000	
213	  CB	8.434	-1.983	0.223	C.3	51	LEU371	0.000	
214	  CG	8.986	-1.471	1.553	C.3	51	LEU371	0.000	
215	 CD1	8.369	-2.226	2.717	C.3	51	LEU371	0.000	
216	 CD2	10.501	-1.590	1.585	C.3	51	LEU371	0.000	
217	   N	8.155	-1.728	-3.293	N.am	52	ALA372	0.000	
218	  CA	7.713	-2.516	-4.431	C.3	52	ALA372	0.000	
219	   C	8.902	-3.152	-5.154	C.2	52	ALA372	0.000	
220	   O	10.067	-2.844	-4.894	O.2	52	ALA372	0.000	
221	  CB	6.904	-1.650	-5.394	C.3	52	ALA372	0.000	
222	   N	8.589	-4.059	-6.074	N.am	53	THR373	0.000	
223	  CA	9.609	-4.703	-6.888	C.3	53	THR373	0.000	
224	   C	9.005	-5.084	-8.231	C.2	53	THR373	0.000	
225	   O	7.784	-5.198	-8.376	O.2	53	THR373	0.000	
226	  CB	10.198	-5.942	-6.201	C.3	53	THR373	0.000	
227	 CG2	9.160	-7.049	-6.111	C.3	53	THR373	0.000	
228	 OG1	11.319	-6.418	-6.957	O.3	53	THR373	0.000	
229	   N	9.878	-5.269	-9.215	N.am	54	LEU374	0.000	
230	  CA	9.474	-5.709	-10.541	C.3	54	LEU374	0.000	
231	   C	9.481	-7.229	-10.600	C.2	54	LEU374	0.000	
232	   O	10.411	-7.877	-10.113	O.2	54	LEU374	0.000	
233	  CB	10.407	-5.156	-11.619	C.3	54	LEU374	0.000	
234	 CD1	10.782	-2.782	-10.902	C.3	54	LEU374	0.000	
235	   N	8.441	-7.792	-11.205	N.am	55	LYS375	0.000	
@<TRIPOS>BOND
1 5 6 1
2 6 7 1
3 8 9 2
4 8 10 1
5 10 11 1
6 12 13 2
7 12 15 1
8 15 16 1
9 16 17 1
10 16 19 1
11 17 18 2
12 17 26 1
13 19 20 1
14 20 21 2
15 20 22 1
16 21 23 1
17 22 24 2
18 23 25 2
19 24 25 1
20 26 27 1
21 27 28 1
22 27 29 1
23 29 30 1
24 30 31 1
25 31 32 1
26 32 33 1
27 34 35 1
28 36 37 1
29 37 38 1
30 38 39 1
31 39 40 1
32 41 42 2
33 46 47 1
34 46 48 1
35 49 50 1
36 50 51 2
37 50 52 1
38 55 56 1
39 56 57 1
40 56 59 1
41 57 58 2
42 57 63 1
43 59 60 1
44 60 61 1
45 60 62 1
46 68 69 1
47 68 71 1
48 69 70 2
49 69 74 1
50 71 72 1
51 71 73 1
52 75 76 1
53 76 77 2
54 78 79 1
55 79 80 2
56 79 81 1
57 80 82 1
58 81 83 2
59 82 84 2
60 83 84 1
61 88 89 1
62 89 90 1
63 90 91 1
64 91 92 1
65 91 93 1
66 94 95 1
67 94 97 1
68 95 96 2
69 95 102 1
70 97 98 1
71 98 99 1
72 99 100 2
73 99 101 1
74 102 103 1
75 103 104 1
76 103 106 1
77 104 105 2
78 104 110 1
79 106 107 1
80 107 108 1
81 107 109 1
82 110 111 1
83 111 112 1
84 111 114 1
85 112 113 2
86 112 117 1
87 114 115 1
88 115 116 1
89 117 118 1
90 118 119 1
91 118 121 1
92 119 120 2
93 119 123 1
94 121 122 1
95 123 124 1
96 124 125 1
97 125 126 2
98 125 127 1
99 127 128 1
100 128 129 1
101 129 130 1
102 130 131 1
103 131 132 1
104 132 133 1
105 132 134 1
106 136 137 1
107 136 138 1
108 141 142 1
109 142 143 2
110 142 144 1
111 144 145 1
112 145 146 1
113 145 148 1
114 146 147 2
115 146 152 1
116 148 149 1
117 148 150 1
118 149 151 1
119 152 153 1
120 153 155 1
121 155 156 1
122 157 158 1
123 158 159 1
124 159 160 2
125 160 161 1
126 162 163 1
127 163 164 1
128 166 167 1
129 168 169 1
130 168 171 1
131 169 170 2
132 169 175 1
133 171 172 1
134 172 173 2
135 172 174 1
136 176 177 1
137 177 178 1
138 177 179 2
139 180 181 2
140 180 182 1
141 181 183 1
142 182 184 2
143 183 185 2
144 184 185 1
145 186 187 1
146 187 188 2
147 187 189 1
148 189 190 1
149 190 191 1
150 190 193 1
151 191 192 2
152 191 197 1
153 193 194 1
154 194 195 2
155 194 196 1
156 197 198 1
157 198 199 1
158 198 201 1
159 199 200 2
160 199 205 1
161 201 202 1
162 202 203 1
163 202 204 1
164 205 206 1
165 206 207 1
166 207 208 2
167 207 209 1
168 209 210 1
169 210 211 1
170 210 213 1
171 211 212 2
172 211 217 1
173 213 214 1
174 214 215 1
175 214 216 1
176 217 218 1
177 218 219 1
178 218 221 1
179 219 220 2
180 219 222 1
181 222 223 1
182 223 224 1
183 223 226 1
184 224 225 2
185 224 229 1
186 226 227 1
187 226 228 1
188 229 230 1
189 230 231 1
190 230 233 1
191 231 232 2
192 231 235 1
@<TRIPOS>SUBSTRUCTURE
1	ILE225	1	RESIDUE	1 B	ILE
2	ILE227	3	RESIDUE	1 B	ILE
3	GLY228	5	RESIDUE	1 B	GLY
4	ARG229	7	RESIDUE	1 B	ARG
5	GLY230	10	RESIDUE	1 B	GLY
6	SER231	12	RESIDUE	1 B	SER
7	PHE232	15	RESIDUE	1 B	PHE
8	LYS233	26	RESIDUE	1 B	LYS
9	VAL235	34	RESIDUE	1 B	VAL
10	LYS237	36	RESIDUE	1 B	LYS
11	ALA248	41	RESIDUE	1 B	ALA
12	CYS250	44	RESIDUE	1 B	CYS
13	LEU252	45	RESIDUE	1 B	LEU
14	GLU268	49	RESIDUE	1 B	GLU
15	ALA269	53	RESIDUE	1 B	ALA
16	LEU272	55	RESIDUE	1 B	LEU
17	LYS273	63	RESIDUE	1 B	LYS
18	HIS277	64	RESIDUE	1 B	HIS
19	ILE280	66	RESIDUE	1 B	ILE
20	VAL281	68	RESIDUE	1 B	VAL
21	ARG282	74	RESIDUE	1 B	ARG
22	PHE283	78	RESIDUE	1 B	PHE
23	LEU299	85	RESIDUE	1 B	LEU
24	VAL300	88	RESIDUE	1 B	VAL
25	THR301	89	RESIDUE	1 B	THR
26	GLU302	94	RESIDUE	1 B	GLU
27	LEU303	102	RESIDUE	1 B	LEU
28	MET304	110	RESIDUE	1 B	MET
29	THR305	117	RESIDUE	1 B	THR
30	SER306	123	RESIDUE	1 B	SER
31	GLY307	127	RESIDUE	1 B	GLY
32	THR308	130	RESIDUE	1 B	THR
33	LYS310	135	RESIDUE	1 B	LYS
34	THR311	136	RESIDUE	1 B	THR
35	LYS314	139	RESIDUE	1 B	LYS
36	ARG315	140	RESIDUE	1 B	ARG
37	PRO344	141	RESIDUE	1 B	PRO
38	ILE345	144	RESIDUE	1 B	ILE
39	ILE346	152	RESIDUE	1 B	ILE
40	HIS347	157	RESIDUE	1 B	HIS
41	ARG348	162	RESIDUE	1 B	ARG
42	ASP349	165	RESIDUE	1 B	ASP
43	LYS351	166	RESIDUE	1 B	LYS
44	ASP353	168	RESIDUE	1 B	ASP
45	ASN354	175	RESIDUE	1 B	ASN
46	PHE356	180	RESIDUE	1 B	PHE
47	GLY367	186	RESIDUE	1 B	GLY
48	ASP368	189	RESIDUE	1 B	ASP
49	LEU369	197	RESIDUE	1 B	LEU
50	GLY370	205	RESIDUE	1 B	GLY
51	LEU371	209	RESIDUE	1 B	LEU
52	ALA372	217	RESIDUE	1 B	ALA
53	THR373	222	RESIDUE	1 B	THR
54	LEU374	229	RESIDUE	1 B	LEU
55	LYS375	235	RESIDUE	1 B	LYS
