# created with PyMOL 2.5.4
@<TRIPOS>MOLECULE
6FIO_A_aligned_pocket
268 227 56              
SMALL
USER_CHARGES
@<TRIPOS>ATOM
1	   N	4.235	24.064	4.298	N.3	1	LYS613	0.000	
2	  CA	3.127	24.235	5.240	C.3	1	LYS613	0.000	
3	   C	3.309	23.405	6.507	C.2	1	LYS613	0.000	
4	   O	3.332	23.948	7.616	O.2	1	LYS613	0.000	
5	  CB	1.795	23.863	4.587	C.3	1	LYS613	0.000	
6	  CG	0.871	25.049	4.377	C.3	1	LYS613	0.000	
7	  CD	-0.563	24.613	4.114	C.3	1	LYS613	0.000	
8	  CE	-1.446	25.815	3.798	C.3	1	LYS613	0.000	
9	  NZ	-0.882	26.615	2.672	N.4	1	LYS613	0.000	
10	   N	3.450	22.093	6.322	N.am	2	GLU614	0.000	
11	  CA	3.424	21.111	7.411	C.3	2	GLU614	0.000	
12	  CB	1.998	20.600	7.644	C.3	2	GLU614	0.000	
13	  CG	1.111	21.486	8.485	C.3	2	GLU614	0.000	
14	  CD	-0.360	21.162	8.297	C.2	2	GLU614	0.000	
15	 OE1	-0.973	21.729	7.367	O.co2	2	GLU614	0.000	
16	 OE2	-0.899	20.335	9.062	O.co2	2	GLU614	0.000	
17	   O	3.448	16.988	8.775	O.3	3	LYS615	0.000	
18	  CA	3.506	14.888	6.984	C.3	4	LEU616	0.000	
19	   C	4.064	13.596	7.550	C.2	4	LEU616	0.000	
20	   O	3.310	12.716	7.969	O.2	4	LEU616	0.000	
21	  CB	3.059	14.649	5.539	C.3	4	LEU616	0.000	
22	  CG	2.162	15.678	4.847	C.3	4	LEU616	0.000	
23	 CD1	1.989	15.306	3.388	C.3	4	LEU616	0.000	
24	 CD2	0.808	15.756	5.516	C.3	4	LEU616	0.000	
25	   N	5.387	13.465	7.546	N.am	5	GLY617	0.000	
26	  CA	6.000	12.265	8.077	C.3	5	GLY617	0.000	
27	   C	7.505	12.175	7.971	C.3	5	GLY617	0.000	
28	   N	8.029	11.038	8.422	N.3	6	GLU618	0.000	
29	  CA	9.459	10.767	8.446	C.3	6	GLU618	0.000	
30	   C	9.782	9.448	7.752	C.2	6	GLU618	0.000	
31	   O	8.914	8.807	7.155	O.2	6	GLU618	0.000	
32	   N	11.039	9.041	7.869	N.am	7	GLY619	0.000	
33	  CA	11.514	7.794	7.305	C.3	7	GLY619	0.000	
34	   C	13.027	7.794	7.347	C.2	7	GLY619	0.000	
35	   O	13.635	8.758	7.816	O.2	7	GLY619	0.000	
36	   N	13.642	6.725	6.855	N.am	8	GLN620	0.000	
37	  CG	14.920	4.241	7.703	C.3	8	GLN620	0.000	
38	  CD	14.768	4.889	9.072	C.2	8	GLN620	0.000	
39	 NE2	13.523	5.022	9.531	N.pl3	8	GLN620	0.000	
40	 OE1	15.753	5.279	9.700	O.2	8	GLN620	0.000	
41	   N	14.864	7.848	4.804	N.3	9	PHE621	0.000	
42	   C	15.336	10.129	4.048	C.3	9	PHE621	0.000	
43	  CB	14.351	8.443	2.485	C.3	9	PHE621	0.000	
44	  CG	12.896	8.599	2.838	C.2	9	PHE621	0.000	
45	 CD1	12.305	9.858	2.872	C.2	9	PHE621	0.000	
46	 CD2	12.122	7.490	3.144	C.2	9	PHE621	0.000	
47	 CE1	10.970	10.007	3.208	C.2	9	PHE621	0.000	
48	 CE2	10.787	7.634	3.477	C.2	9	PHE621	0.000	
49	  CZ	10.211	8.892	3.509	C.2	9	PHE621	0.000	
50	   N	14.493	10.501	5.000	N.3	10	GLY622	0.000	
51	   O	12.153	11.377	6.248	O.3	10	GLY622	0.000	
52	  CB	6.660	12.964	3.534	C.3	11	VAL624	0.000	
53	 CG1	5.550	13.349	2.555	C.3	11	VAL624	0.000	
54	 CG2	7.354	11.654	3.102	C.3	11	VAL624	0.000	
55	   O	3.735	21.506	3.087	O.3	12	LEU626	0.000	
56	 CD1	0.055	18.956	2.061	C.3	12	LEU626	0.000	
57	 CD2	-0.558	20.121	4.182	C.3	12	LEU626	0.000	
58	 CD1	-3.537	22.053	1.285	C.3	13	LEU651	0.000	
59	   C	4.483	15.798	-1.371	C.2	14	ALA653	0.000	
60	   O	4.587	15.281	-2.478	O.2	14	ALA653	0.000	
61	  CB	2.492	14.700	-0.328	C.3	14	ALA653	0.000	
62	   N	8.232	14.077	-0.946	N.3	15	LYS655	0.000	
63	  CB	8.985	11.733	-0.773	C.3	15	LYS655	0.000	
64	  CG	9.996	10.724	-0.239	C.3	15	LYS655	0.000	
65	  CD	9.546	9.296	-0.585	C.3	15	LYS655	0.000	
66	  CE	10.517	8.246	-0.067	C.3	15	LYS655	0.000	
67	  NZ	9.983	6.857	-0.186	N.4	15	LYS655	0.000	
68	   C	14.536	4.015	-7.879	C.2	16	LYS671	0.000	
69	   O	13.760	3.522	-8.698	O.2	16	LYS671	0.000	
70	   N	14.118	4.631	-6.778	N.am	17	GLU672	0.000	
71	  CA	12.689	4.746	-6.498	C.3	17	GLU672	0.000	
72	   C	12.024	5.750	-7.448	C.2	17	GLU672	0.000	
73	   O	10.885	5.541	-7.873	O.2	17	GLU672	0.000	
74	  CB	12.438	5.149	-5.041	C.3	17	GLU672	0.000	
75	  CG	11.042	4.774	-4.537	C.3	17	GLU672	0.000	
76	  CD	10.714	5.371	-3.177	C.2	17	GLU672	0.000	
77	 OE1	11.608	5.991	-2.558	O.co2	17	GLU672	0.000	
78	 OE2	9.556	5.220	-2.729	O.co2	17	GLU672	0.000	
79	   N	12.734	6.829	-7.783	N.am	18	VAL673	0.000	
80	  CA	12.221	7.788	-8.757	C.3	18	VAL673	0.000	
81	   C	11.842	7.032	-10.021	C.2	18	VAL673	0.000	
82	   O	10.772	7.250	-10.582	O.2	18	VAL673	0.000	
83	  CA	10.095	2.857	-10.072	C.3	19	ILE675	0.000	
84	   O	7.812	3.190	-10.736	O.3	19	ILE675	0.000	
85	  CB	10.295	2.132	-8.724	C.3	19	ILE675	0.000	
86	 CG1	11.405	1.080	-8.842	C.3	19	ILE675	0.000	
87	 CG2	8.988	1.518	-8.241	C.3	19	ILE675	0.000	
88	 CD1	11.769	0.422	-7.517	C.3	19	ILE675	0.000	
89	   N	8.732	4.749	-9.395	N.3	20	MET676	0.000	
90	  CA	7.517	5.551	-9.286	C.3	20	MET676	0.000	
91	   C	7.116	6.119	-10.637	C.2	20	MET676	0.000	
92	   O	5.935	6.284	-10.922	O.2	20	MET676	0.000	
93	  CB	7.703	6.701	-8.289	C.3	20	MET676	0.000	
94	  CG	7.815	6.279	-6.830	C.3	20	MET676	0.000	
95	  SD	6.405	5.306	-6.246	S.3	20	MET676	0.000	
96	  CE	5.074	6.477	-6.501	C.3	20	MET676	0.000	
97	   N	8.106	6.410	-11.470	N.am	21	SER677	0.000	
98	  CA	7.855	6.971	-12.795	C.3	21	SER677	0.000	
99	  CB	3.417	3.560	-10.445	C.3	22	LEU679	0.000	
100	  CG	4.383	2.499	-9.920	C.3	22	LEU679	0.000	
101	 CD1	4.336	2.465	-8.411	C.3	22	LEU679	0.000	
102	   O	-3.256	5.598	-10.372	O.3	23	ASP681	0.000	
103	  CB	-0.938	3.296	-8.004	C.3	24	ILE684	0.000	
104	 CG1	-1.498	1.865	-8.161	C.3	24	ILE684	0.000	
105	 CG2	0.502	3.268	-7.517	C.3	24	ILE684	0.000	
106	 CD1	-1.533	1.040	-6.878	C.3	24	ILE684	0.000	
107	  CA	0.118	7.139	-5.729	C.3	25	ILE685	0.000	
108	   C	0.898	7.529	-6.987	C.2	25	ILE685	0.000	
109	   O	1.757	6.777	-7.454	O.2	25	ILE685	0.000	
110	  CB	1.026	7.133	-4.483	C.3	25	ILE685	0.000	
111	 CG1	0.192	7.348	-3.227	C.3	25	ILE685	0.000	
112	 CG2	2.113	8.212	-4.582	C.3	25	ILE685	0.000	
113	 CD1	-0.393	8.725	-3.135	C.3	25	ILE685	0.000	
114	   N	0.596	8.692	-7.557	N.am	26	ARG686	0.000	
115	  CA	1.271	9.059	-8.803	C.3	26	ARG686	0.000	
116	   O	7.882	14.159	-3.844	O.3	27	MET699	0.000	
117	  SD	10.282	9.307	-5.730	S.3	27	MET699	0.000	
118	  CE	11.023	9.124	-4.107	C.3	27	MET699	0.000	
119	  CB	2.659	12.196	-4.680	C.3	28	THR701	0.000	
120	 CG2	2.505	12.361	-3.183	C.3	28	THR701	0.000	
121	 OG1	1.566	11.409	-5.164	O.3	28	THR701	0.000	
122	   C	-1.147	14.608	-3.341	C.2	29	ASP702	0.000	
123	   O	-0.615	13.749	-2.632	O.2	29	ASP702	0.000	
124	  CB	-2.210	13.786	-5.411	C.3	29	ASP702	0.000	
125	  CG	-2.205	13.680	-6.918	C.3	29	ASP702	0.000	
126	 OD2	-1.594	12.729	-7.446	 O	29	ASP702	0.000	
127	  CA	-2.271	15.583	-1.438	C.3	30	TYR703	0.000	
128	   C	-3.631	14.911	-1.247	C.3	30	TYR703	0.000	
129	  CB	-2.288	17.006	-0.891	C.3	30	TYR703	0.000	
130	  CG	-2.814	17.143	0.527	C.2	30	TYR703	0.000	
131	 CD1	-2.171	16.530	1.598	C.2	30	TYR703	0.000	
132	 CD2	-3.939	17.910	0.797	C.2	30	TYR703	0.000	
133	 CE1	-2.645	16.678	2.903	C.2	30	TYR703	0.000	
134	 CE2	-4.417	18.059	2.087	C.2	30	TYR703	0.000	
135	  CZ	-3.769	17.442	3.138	C.2	30	TYR703	0.000	
136	  OH	-4.258	17.592	4.421	O.3	30	TYR703	0.000	
137	   N	-3.648	13.867	-0.427	N.3	31	MET704	0.000	
138	  CA	-4.889	13.203	-0.043	C.3	31	MET704	0.000	
139	   C	-5.360	13.762	1.298	C.2	31	MET704	0.000	
140	   O	-4.750	13.501	2.339	O.2	31	MET704	0.000	
141	  CB	-4.673	11.699	0.016	C.3	31	MET704	0.000	
142	  CG	-3.945	11.175	-1.217	C.3	31	MET704	0.000	
143	   N	-6.434	14.549	1.245	N.am	32	GLU705	0.000	
144	  CA	-6.956	15.315	2.377	C.3	32	GLU705	0.000	
145	   C	-7.200	14.520	3.660	C.2	32	GLU705	0.000	
146	   O	-7.184	15.084	4.759	O.2	32	GLU705	0.000	
147	  CB	-8.286	15.967	1.991	C.3	32	GLU705	0.000	
148	  CG	-8.194	17.166	1.116	C.3	32	GLU705	0.000	
149	   N	-7.457	13.224	3.524	N.am	33	ASN706	0.000	
150	  CA	-7.999	12.461	4.638	C.3	33	ASN706	0.000	
151	   C	-7.041	11.440	5.252	C.2	33	ASN706	0.000	
152	   O	-7.447	10.637	6.086	O.2	33	ASN706	0.000	
153	 OD1	-10.781	13.318	5.228	O.3	33	ASN706	0.000	
154	   N	-5.773	11.481	4.855	N.am	34	GLY707	0.000	
155	  CA	-4.754	10.660	5.489	C.3	34	GLY707	0.000	
156	   C	-4.902	9.168	5.254	C.2	34	GLY707	0.000	
157	   O	-5.476	8.739	4.249	O.2	34	GLY707	0.000	
158	   N	-4.381	8.352	6.163	N.am	35	ASP708	0.000	
159	  CA	-4.370	6.926	5.869	C.3	35	ASP708	0.000	
160	  CB	-3.219	6.196	6.602	C.3	35	ASP708	0.000	
161	  CG	-3.475	5.985	8.084	C.2	35	ASP708	0.000	
162	 OD1	-4.507	5.395	8.443	O.co2	35	ASP708	0.000	
163	 OD2	-2.618	6.383	8.901	O.co2	35	ASP708	0.000	
164	  CB	-6.119	7.246	10.996	C.3	36	GLN711	0.000	
165	  CG	-4.871	6.785	11.727	C.3	36	GLN711	0.000	
166	  CD	-5.194	5.903	12.937	C.2	36	GLN711	0.000	
167	 NE2	-5.684	6.523	14.013	N.pl3	36	GLN711	0.000	
168	 OE1	-5.007	4.679	12.899	O.2	36	GLN711	0.000	
169	   O	1.881	-5.246	-10.981	O.3	37	LEU751	0.000	
170	 CD1	0.752	-2.219	-6.532	C.3	37	LEU751	0.000	
171	   C	4.403	-5.890	-13.641	C.2	38	LEU754	0.000	
172	   O	5.611	-5.664	-13.660	O.2	38	LEU754	0.000	
173	   N	3.881	-6.994	-13.110	N.am	39	ASN755	0.000	
174	  CA	4.681	-7.932	-12.329	C.3	39	ASN755	0.000	
175	   C	5.364	-7.202	-11.182	C.2	39	ASN755	0.000	
176	   O	6.500	-7.505	-10.828	O.2	39	ASN755	0.000	
177	   N	4.647	-6.250	-10.596	N.am	40	PHE756	0.000	
178	  CA	5.150	-5.474	-9.469	C.3	40	PHE756	0.000	
179	   C	4.567	-6.008	-8.162	C.2	40	PHE756	0.000	
180	   O	3.351	-6.002	-7.968	O.2	40	PHE756	0.000	
181	  CB	4.806	-3.990	-9.660	C.3	40	PHE756	0.000	
182	  CG	5.272	-3.093	-8.535	C.2	40	PHE756	0.000	
183	 CD1	4.539	-2.972	-7.365	C.2	40	PHE756	0.000	
184	 CD2	6.439	-2.355	-8.664	C.2	40	PHE756	0.000	
185	 CE1	4.968	-2.140	-6.344	C.2	40	PHE756	0.000	
186	 CE2	6.876	-1.522	-7.646	C.2	40	PHE756	0.000	
187	  CZ	6.139	-1.402	-6.492	C.2	40	PHE756	0.000	
188	   N	5.438	-6.461	-7.262	N.am	41	VAL757	0.000	
189	  CA	4.993	-7.009	-5.987	C.3	41	VAL757	0.000	
190	   O	6.288	-5.539	-4.627	O.3	41	VAL757	0.000	
191	   C	-1.398	2.285	5.826	C.2	42	ARG764	0.000	
192	   O	-0.790	3.354	5.937	O.2	42	ARG764	0.000	
193	  CG	1.633	0.844	3.675	C.2	43	ASN765	0.000	
194	 ND2	2.146	-0.368	3.886	N.pl3	43	ASN765	0.000	
195	 OD1	2.209	1.878	4.017	O.2	43	ASN765	0.000	
196	  CB	-3.515	8.049	0.840	C.3	44	LEU767	0.000	
197	  CG	-2.105	7.992	1.425	C.3	44	LEU767	0.000	
198	 CD1	-1.128	8.869	0.653	C.3	44	LEU767	0.000	
199	 CD2	-2.143	8.391	2.896	C.3	44	LEU767	0.000	
200	  CD	-3.791	8.514	-5.566	C.3	45	LYS775	0.000	
201	  CE	-4.660	9.430	-6.376	C.3	45	LYS775	0.000	
202	  NZ	-4.045	9.662	-7.697	N.4	45	LYS775	0.000	
203	   O	-0.222	3.898	-3.452	O.3	46	ILE776	0.000	
204	  CA	1.193	3.885	-1.062	C.3	47	ALA777	0.000	
205	   C	2.083	2.849	-0.396	C.2	47	ALA777	0.000	
206	   O	1.741	1.665	-0.359	O.2	47	ALA777	0.000	
207	  CB	1.128	5.160	-0.228	C.3	47	ALA777	0.000	
208	   N	3.219	3.294	0.132	N.am	48	ASP778	0.000	
209	  CA	4.178	2.392	0.764	C.3	48	ASP778	0.000	
210	   C	5.085	3.194	1.705	C.2	48	ASP778	0.000	
211	   O	6.159	3.665	1.305	O.2	48	ASP778	0.000	
212	  CB	4.985	1.649	-0.311	C.3	48	ASP778	0.000	
213	  CG	5.877	0.556	0.259	C.2	48	ASP778	0.000	
214	 OD1	5.653	0.132	1.414	O.co2	48	ASP778	0.000	
215	 OD2	6.807	0.120	-0.462	O.co2	48	ASP778	0.000	
216	   N	4.631	3.349	2.949	N.am	49	PHE779	0.000	
217	  CA	5.265	4.246	3.915	C.3	49	PHE779	0.000	
218	   C	6.575	3.716	4.496	C.2	49	PHE779	0.000	
219	   O	7.330	4.463	5.115	O.2	49	PHE779	0.000	
220	  CB	4.327	4.522	5.095	C.3	49	PHE779	0.000	
221	  CG	3.214	5.494	4.810	C.2	49	PHE779	0.000	
222	 CD1	2.082	5.098	4.107	C.2	49	PHE779	0.000	
223	 CD2	3.272	6.792	5.310	C.2	49	PHE779	0.000	
224	 CE1	1.038	5.992	3.878	C.2	49	PHE779	0.000	
225	 CE2	2.240	7.688	5.087	C.2	49	PHE779	0.000	
226	  CZ	1.123	7.290	4.367	C.2	49	PHE779	0.000	
227	   N	6.832	2.427	4.347	N.am	50	GLY780	0.000	
228	  CA	7.864	1.804	5.158	C.3	50	GLY780	0.000	
229	   C	7.315	1.567	6.560	C.2	50	GLY780	0.000	
230	   O	6.113	1.693	6.789	O.2	50	GLY780	0.000	
231	   N	8.177	1.256	7.518	N.am	51	MET781	0.000	
232	  CA	7.667	0.794	8.802	C.3	51	MET781	0.000	
233	   C	8.175	1.595	9.989	C.2	51	MET781	0.000	
234	   O	8.434	1.038	11.053	O.2	51	MET781	0.000	
235	  CB	8.021	-0.678	8.983	C.3	51	MET781	0.000	
236	  CG	9.483	-0.975	8.803	C.3	51	MET781	0.000	
237	  SD	9.786	-2.743	8.727	S.3	51	MET781	0.000	
238	   N	8.296	2.903	9.818	N.am	52	SER782	0.000	
239	  CA	8.895	3.729	10.853	C.3	52	SER782	0.000	
240	   C	7.848	4.460	11.680	C.3	52	SER782	0.000	
241	  CB	9.864	4.745	10.235	C.3	52	SER782	0.000	
242	  OG	9.174	5.653	9.391	O.3	52	SER782	0.000	
243	   N	6.633	4.570	11.150	N.3	53	ARG783	0.000	
244	  CA	5.565	5.265	11.866	C.3	53	ARG783	0.000	
245	  CB	4.290	5.308	11.027	C.3	53	ARG783	0.000	
246	  CG	4.318	6.331	9.913	C.3	53	ARG783	0.000	
247	  CD	3.049	6.233	9.106	C.3	53	ARG783	0.000	
248	  NE	2.919	4.931	8.462	N.pl3	53	ARG783	0.000	
249	  CZ	1.880	4.581	7.708	C.cat	53	ARG783	0.000	
250	 NH1	0.874	5.432	7.518	N.pl3	53	ARG783	0.000	
251	 NH2	1.840	3.385	7.140	N.pl3	53	ARG783	0.000	
252	  CB	0.642	5.262	14.335	C.3	54	LEU785	0.000	
253	  CG	-0.877	5.094	14.388	C.3	54	LEU785	0.000	
254	 CD1	-1.382	5.179	15.817	C.3	54	LEU785	0.000	
255	 CD2	-1.557	6.149	13.512	C.3	54	LEU785	0.000	
256	 CD2	0.672	3.101	10.986	C.2	55	TYR786	0.000	
257	 CE1	-1.831	2.277	11.835	C.2	55	TYR786	0.000	
258	 CE2	-0.423	3.890	10.715	C.2	55	TYR786	0.000	
259	  CZ	-1.674	3.464	11.135	C.2	55	TYR786	0.000	
260	  OH	-2.783	4.225	10.883	O.3	55	TYR786	0.000	
261	  CB	6.824	-4.264	11.833	C.3	56	TYR790	0.000	
262	  CG	6.155	-3.521	10.700	C.2	56	TYR790	0.000	
263	 CD1	5.361	-2.402	10.948	C.2	56	TYR790	0.000	
264	 CD2	6.302	-3.947	9.382	C.2	56	TYR790	0.000	
265	 CE1	4.722	-1.733	9.911	C.2	56	TYR790	0.000	
266	 CE2	5.670	-3.290	8.348	C.2	56	TYR790	0.000	
267	  CZ	4.882	-2.181	8.616	C.2	56	TYR790	0.000	
268	  OH	4.260	-1.521	7.579	O.3	56	TYR790	0.000	
@<TRIPOS>BOND
1 1 2 1
2 2 3 1
3 2 5 1
4 3 4 2
5 3 10 1
6 5 6 1
7 6 7 1
8 7 8 1
9 8 9 1
10 10 11 1
11 11 12 1
12 12 13 1
13 13 14 1
14 14 15 2
15 14 16 1
16 18 19 1
17 18 21 1
18 19 20 2
19 19 25 1
20 21 22 1
21 22 23 1
22 22 24 1
23 25 26 1
24 26 27 1
25 27 28 1
26 28 29 1
27 29 30 1
28 30 31 2
29 30 32 1
30 32 33 1
31 33 34 1
32 34 35 2
33 34 36 1
34 37 38 1
35 38 39 1
36 38 40 2
37 42 50 1
38 43 44 1
39 44 45 2
40 44 46 1
41 45 47 1
42 46 48 2
43 47 49 2
44 48 49 1
45 52 53 1
46 52 54 1
47 59 60 2
48 63 64 1
49 64 65 1
50 65 66 1
51 66 67 1
52 68 69 2
53 68 70 1
54 70 71 1
55 71 72 1
56 71 74 1
57 72 73 2
58 72 79 1
59 74 75 1
60 75 76 1
61 76 77 2
62 76 78 1
63 79 80 1
64 80 81 1
65 81 82 2
66 83 85 1
67 85 86 1
68 85 87 1
69 86 88 1
70 89 90 1
71 90 91 1
72 90 93 1
73 91 92 2
74 91 97 1
75 93 94 1
76 94 95 1
77 95 96 1
78 97 98 1
79 99 100 1
80 100 101 1
81 103 104 1
82 103 105 1
83 104 106 1
84 107 108 1
85 107 110 1
86 108 109 2
87 108 114 1
88 110 111 1
89 110 112 1
90 111 113 1
91 114 115 1
92 117 118 1
93 119 120 1
94 119 121 1
95 122 123 2
96 124 125 1
97 125 126 1
98 127 128 1
99 127 129 1
100 128 137 1
101 129 130 1
102 130 131 2
103 130 132 1
104 131 133 1
105 132 134 2
106 133 135 2
107 134 135 1
108 135 136 1
109 137 138 1
110 138 139 1
111 138 141 1
112 139 140 2
113 139 143 1
114 141 142 1
115 143 144 1
116 144 145 1
117 144 147 1
118 145 146 2
119 145 149 1
120 147 148 1
121 149 150 1
122 150 151 1
123 151 152 2
124 151 154 1
125 154 155 1
126 155 156 1
127 156 157 2
128 156 158 1
129 158 159 1
130 159 160 1
131 160 161 1
132 161 162 2
133 161 163 1
134 164 165 1
135 165 166 1
136 166 167 1
137 166 168 2
138 171 172 2
139 171 173 1
140 173 174 1
141 174 175 1
142 175 176 2
143 175 177 1
144 177 178 1
145 178 179 1
146 178 181 1
147 179 180 2
148 179 188 1
149 181 182 1
150 182 183 2
151 182 184 1
152 183 185 1
153 184 186 2
154 185 187 2
155 186 187 1
156 188 189 1
157 191 192 2
158 193 194 1
159 193 195 2
160 196 197 1
161 197 198 1
162 197 199 1
163 200 201 1
164 201 202 1
165 204 205 1
166 204 207 1
167 205 206 2
168 205 208 1
169 208 209 1
170 209 210 1
171 209 212 1
172 210 211 2
173 210 216 1
174 212 213 1
175 213 214 2
176 213 215 1
177 216 217 1
178 217 218 1
179 217 220 1
180 218 219 2
181 218 227 1
182 220 221 1
183 221 222 2
184 221 223 1
185 222 224 1
186 223 225 2
187 224 226 2
188 225 226 1
189 227 228 1
190 228 229 1
191 229 230 2
192 229 231 1
193 231 232 1
194 232 233 1
195 232 235 1
196 233 234 2
197 233 238 1
198 235 236 1
199 236 237 1
200 238 239 1
201 239 240 1
202 239 241 1
203 240 243 1
204 241 242 1
205 243 244 1
206 244 245 1
207 245 246 1
208 246 247 1
209 247 248 1
210 248 249 1
211 249 250 2
212 249 251 1
213 252 253 1
214 253 254 1
215 253 255 1
216 256 258 2
217 257 259 2
218 258 259 1
219 259 260 1
220 261 262 1
221 262 263 2
222 262 264 1
223 263 265 1
224 264 266 2
225 265 267 2
226 266 267 1
227 267 268 1
@<TRIPOS>SUBSTRUCTURE
1	LYS613	1	RESIDUE	1 A	LYS
2	GLU614	10	RESIDUE	1 A	GLU
3	LYS615	17	RESIDUE	1 A	LYS
4	LEU616	18	RESIDUE	1 A	LEU
5	GLY617	25	RESIDUE	1 A	GLY
6	GLU618	28	RESIDUE	1 A	GLU
7	GLY619	32	RESIDUE	1 A	GLY
8	GLN620	36	RESIDUE	1 A	GLN
9	PHE621	41	RESIDUE	1 A	PHE
10	GLY622	50	RESIDUE	1 A	GLY
11	VAL624	52	RESIDUE	1 A	VAL
12	LEU626	55	RESIDUE	1 A	LEU
13	LEU651	58	RESIDUE	1 A	LEU
14	ALA653	59	RESIDUE	1 A	ALA
15	LYS655	62	RESIDUE	1 A	LYS
16	LYS671	68	RESIDUE	1 A	LYS
17	GLU672	70	RESIDUE	1 A	GLU
18	VAL673	79	RESIDUE	1 A	VAL
19	ILE675	83	RESIDUE	1 A	ILE
20	MET676	89	RESIDUE	1 A	MET
21	SER677	97	RESIDUE	1 A	SER
22	LEU679	99	RESIDUE	1 A	LEU
23	ASP681	102	RESIDUE	1 A	ASP
24	ILE684	103	RESIDUE	1 A	ILE
25	ILE685	107	RESIDUE	1 A	ILE
26	ARG686	114	RESIDUE	1 A	ARG
27	MET699	116	RESIDUE	1 A	MET
28	THR701	119	RESIDUE	1 A	THR
29	ASP702	122	RESIDUE	1 A	ASP
30	TYR703	127	RESIDUE	1 A	TYR
31	MET704	137	RESIDUE	1 A	MET
32	GLU705	143	RESIDUE	1 A	GLU
33	ASN706	149	RESIDUE	1 A	ASN
34	GLY707	154	RESIDUE	1 A	GLY
35	ASP708	158	RESIDUE	1 A	ASP
36	GLN711	164	RESIDUE	1 A	GLN
37	LEU751	169	RESIDUE	1 A	LEU
38	LEU754	171	RESIDUE	1 A	LEU
39	ASN755	173	RESIDUE	1 A	ASN
40	PHE756	177	RESIDUE	1 A	PHE
41	VAL757	188	RESIDUE	1 A	VAL
42	ARG764	191	RESIDUE	1 A	ARG
43	ASN765	193	RESIDUE	1 A	ASN
44	LEU767	196	RESIDUE	1 A	LEU
45	LYS775	200	RESIDUE	1 A	LYS
46	ILE776	203	RESIDUE	1 A	ILE
47	ALA777	204	RESIDUE	1 A	ALA
48	ASP778	208	RESIDUE	1 A	ASP
49	PHE779	216	RESIDUE	1 A	PHE
50	GLY780	227	RESIDUE	1 A	GLY
51	MET781	231	RESIDUE	1 A	MET
52	SER782	238	RESIDUE	1 A	SER
53	ARG783	243	RESIDUE	1 A	ARG
54	LEU785	252	RESIDUE	1 A	LEU
55	TYR786	256	RESIDUE	1 A	TYR
56	TYR790	261	RESIDUE	1 A	TYR
