# created with PyMOL 2.5.0
@<TRIPOS>MOLECULE
1err
206 195 25              
SMALL
USER_CHARGES
@<TRIPOS>ATOM
1	   N	75.190	28.560	74.346	N.3	1	MET343	0.000	
2	  CA	74.213	29.182	75.229	C.3	1	MET343	0.000	
3	   C	74.848	30.415	75.855	C.2	1	MET343	0.000	
4	   O	74.196	31.460	75.988	O.2	1	MET343	0.000	
5	  CB	73.619	28.255	76.258	C.3	1	MET343	0.000	
6	  CG	72.421	27.408	75.889	C.3	1	MET343	0.000	
7	  SD	71.438	28.002	74.494	S.3	1	MET343	0.000	
8	  CE	70.677	29.482	75.224	C.3	1	MET343	0.000	
9	   N	75.135	33.152	73.330	N.3	2	LEU346	0.000	
10	  CA	73.799	33.771	73.251	C.3	2	LEU346	0.000	
11	   C	73.411	34.515	74.514	C.2	2	LEU346	0.000	
12	   O	72.763	35.589	74.387	O.2	2	LEU346	0.000	
13	  CB	72.812	32.717	72.775	C.3	2	LEU346	0.000	
14	  CG	73.197	32.163	71.396	C.3	2	LEU346	0.000	
15	 CD1	72.319	30.952	71.093	C.3	2	LEU346	0.000	
16	 CD2	73.117	33.221	70.327	C.3	2	LEU346	0.000	
17	   N	73.767	34.006	75.697	N.am	3	THR347	0.000	
18	  CA	73.329	34.644	76.950	C.3	3	THR347	0.000	
19	   C	74.041	35.977	77.122	C.2	3	THR347	0.000	
20	   O	73.402	36.976	77.407	O.2	3	THR347	0.000	
21	  CB	73.610	33.797	78.194	C.3	3	THR347	0.000	
22	 CG2	73.043	34.344	79.455	C.3	3	THR347	0.000	
23	 OG1	73.118	32.465	78.023	O.3	3	THR347	0.000	
24	   N	75.332	37.861	74.793	N.3	4	LEU349	0.000	
25	  CA	74.787	38.795	73.811	C.3	4	LEU349	0.000	
26	   C	73.486	39.418	74.289	C.2	4	LEU349	0.000	
27	   O	73.345	40.634	74.458	O.2	4	LEU349	0.000	
28	  CB	74.719	38.088	72.472	C.3	4	LEU349	0.000	
29	  CG	74.083	38.806	71.284	C.3	4	LEU349	0.000	
30	 CD1	74.865	40.076	70.945	C.3	4	LEU349	0.000	
31	 CD2	74.014	37.922	70.034	C.3	4	LEU349	0.000	
32	   N	72.447	38.621	74.572	N.am	5	ALA350	0.000	
33	  CA	71.158	39.047	75.016	C.3	5	ALA350	0.000	
34	   C	71.244	40.028	76.184	C.2	5	ALA350	0.000	
35	   O	70.514	41.032	76.293	O.2	5	ALA350	0.000	
36	  CB	70.422	37.775	75.508	C.3	5	ALA350	0.000	
37	   N	72.157	39.696	77.119	N.am	6	ASP351	0.000	
38	  CA	72.290	40.545	78.304	C.3	6	ASP351	0.000	
39	   C	72.844	41.893	77.939	C.2	6	ASP351	0.000	
40	   O	72.436	42.969	78.394	O.2	6	ASP351	0.000	
41	  CB	73.103	39.895	79.385	C.3	6	ASP351	0.000	
42	  CG	72.367	38.694	79.969	C.2	6	ASP351	0.000	
43	 OD1	71.138	38.538	79.792	O.co2	6	ASP351	0.000	
44	 OD2	73.077	37.876	80.611	O.co2	6	ASP351	0.000	
45	   N	72.544	43.238	74.999	N.3	7	GLU353	0.000	
46	  CA	71.499	43.911	74.219	C.3	7	GLU353	0.000	
47	   C	70.418	44.405	75.151	C.2	7	GLU353	0.000	
48	   O	69.862	45.515	74.941	O.2	7	GLU353	0.000	
49	  CB	70.860	43.063	73.155	C.3	7	GLU353	0.000	
50	  CG	71.816	42.499	72.106	C.3	7	GLU353	0.000	
51	  CD	70.998	41.652	71.156	C.2	7	GLU353	0.000	
52	 OE1	70.769	40.458	71.381	O.co2	7	GLU353	0.000	
53	 OE2	70.594	42.166	70.133	O.co2	7	GLU353	0.000	
54	   N	70.152	43.627	76.217	N.am	8	LEU354	0.000	
55	  CA	69.120	44.156	77.132	C.3	8	LEU354	0.000	
56	   C	69.419	45.557	77.625	C.2	8	LEU354	0.000	
57	   O	68.543	46.397	77.897	O.2	8	LEU354	0.000	
58	  CB	68.904	43.225	78.282	C.3	8	LEU354	0.000	
59	  CG	67.721	43.584	79.202	C.3	8	LEU354	0.000	
60	 CD1	66.419	43.322	78.491	C.3	8	LEU354	0.000	
61	 CD2	67.862	42.706	80.457	C.3	8	LEU354	0.000	
62	   N	60.614	41.752	76.463	N.3	9	TRP383	0.000	
63	  CA	62.029	41.668	76.112	C.3	9	TRP383	0.000	
64	   C	62.359	40.622	75.103	C.2	9	TRP383	0.000	
65	   O	63.015	40.905	74.096	O.2	9	TRP383	0.000	
66	  CB	62.859	41.672	77.383	C.3	9	TRP383	0.000	
67	  CG	62.819	40.332	78.083	C.2	9	TRP383	0.000	
68	 CD1	61.988	39.877	79.045	C.2	9	TRP383	0.000	
69	 CD2	63.738	39.252	77.793	C.2	9	TRP383	0.000	
70	 CE2	63.379	38.189	78.617	C.2	9	TRP383	0.000	
71	 CE3	64.791	39.129	76.910	C.2	9	TRP383	0.000	
72	 NE1	62.314	38.588	79.374	N.pl3	9	TRP383	0.000	
73	 CZ2	64.065	36.985	78.590	C.2	9	TRP383	0.000	
74	 CZ3	65.487	37.948	76.872	C.2	9	TRP383	0.000	
75	 CH2	65.114	36.888	77.709	C.2	9	TRP383	0.000	
76	   N	61.904	39.399	75.220	N.am	10	LEU384	0.000	
77	  CA	62.253	38.338	74.291	C.3	10	LEU384	0.000	
78	   C	61.644	38.543	72.923	C.2	10	LEU384	0.000	
79	   O	62.338	38.321	71.921	O.2	10	LEU384	0.000	
80	  CB	61.901	36.984	74.846	C.3	10	LEU384	0.000	
81	  CG	62.520	35.799	74.124	C.3	10	LEU384	0.000	
82	 CD1	64.011	35.983	73.843	C.3	10	LEU384	0.000	
83	 CD2	62.277	34.525	74.920	C.3	10	LEU384	0.000	
84	   N	63.928	41.081	71.387	N.3	11	LEU387	0.000	
85	  CA	65.174	40.562	70.881	C.3	11	LEU387	0.000	
86	   C	64.858	39.779	69.603	C.2	11	LEU387	0.000	
87	   O	65.705	39.742	68.698	O.2	11	LEU387	0.000	
88	  CB	65.889	39.569	71.835	C.3	11	LEU387	0.000	
89	  CG	66.424	40.175	73.143	C.3	11	LEU387	0.000	
90	 CD1	67.288	39.131	73.866	C.3	11	LEU387	0.000	
91	 CD2	67.178	41.469	72.900	C.3	11	LEU387	0.000	
92	   N	63.715	39.109	69.599	N.am	12	MET388	0.000	
93	  CA	63.407	38.271	68.455	C.3	12	MET388	0.000	
94	   C	63.050	39.074	67.251	C.2	12	MET388	0.000	
95	   O	63.618	38.897	66.152	O.2	12	MET388	0.000	
96	  CB	62.369	37.292	68.899	C.3	12	MET388	0.000	
97	  CG	62.997	36.132	69.696	C.3	12	MET388	0.000	
98	  SD	61.579	35.037	70.144	S.3	12	MET388	0.000	
99	  CE	62.630	33.726	70.818	C.3	12	MET388	0.000	
100	   N	66.214	40.147	65.760	N.3	13	LEU391	0.000	
101	  CA	66.917	39.020	65.149	C.3	13	LEU391	0.000	
102	   C	66.366	38.746	63.762	C.2	13	LEU391	0.000	
103	   O	66.998	38.644	62.734	O.2	13	LEU391	0.000	
104	  CB	66.696	37.733	65.989	C.3	13	LEU391	0.000	
105	  CG	67.358	36.473	65.437	C.3	13	LEU391	0.000	
106	 CD1	68.884	36.663	65.425	C.3	13	LEU391	0.000	
107	 CD2	67.013	35.204	66.176	C.3	13	LEU391	0.000	
108	   N	67.241	41.531	61.306	N.3	14	ARG394	0.000	
109	  CA	68.609	41.594	60.787	C.3	14	ARG394	0.000	
110	   C	69.005	40.350	60.060	C.2	14	ARG394	0.000	
111	   O	70.050	40.371	59.402	O.2	14	ARG394	0.000	
112	  CB	69.669	42.039	61.742	C.3	14	ARG394	0.000	
113	  CG	70.204	41.076	62.746	C.3	14	ARG394	0.000	
114	  CD	70.465	41.819	64.103	C.3	14	ARG394	0.000	
115	  NE	70.926	40.678	65.024	N.pl3	14	ARG394	0.000	
116	  CZ	70.320	40.727	66.245	C.cat	14	ARG394	0.000	
117	 NH1	69.464	41.713	66.453	N.pl3	14	ARG394	0.000	
118	 NH2	70.587	39.885	67.213	N.pl3	14	ARG394	0.000	
119	   N	72.408	36.321	64.654	N.3	15	PHE404	0.000	
120	  CA	72.406	36.715	66.070	C.3	15	PHE404	0.000	
121	   C	73.318	37.929	66.247	C.2	15	PHE404	0.000	
122	   O	72.974	38.820	66.991	O.2	15	PHE404	0.000	
123	  CB	72.843	35.598	66.931	C.3	15	PHE404	0.000	
124	  CG	71.768	34.592	67.146	C.2	15	PHE404	0.000	
125	 CD1	70.810	34.769	68.112	C.2	15	PHE404	0.000	
126	 CD2	71.748	33.445	66.381	C.2	15	PHE404	0.000	
127	 CE1	69.841	33.791	68.313	C.2	15	PHE404	0.000	
128	 CE2	70.771	32.465	66.574	C.2	15	PHE404	0.000	
129	  CZ	69.833	32.653	67.543	C.2	15	PHE404	0.000	
130	   N	66.498	21.521	71.918	N.3	16	GLY420	0.000	
131	  CA	65.357	21.884	71.143	C.3	16	GLY420	0.000	
132	   C	65.092	23.320	70.781	C.2	16	GLY420	0.000	
133	   O	64.020	23.850	71.107	O.2	16	GLY420	0.000	
134	   N	66.033	23.982	70.089	N.am	17	MET421	0.000	
135	  CA	65.784	25.373	69.683	C.3	17	MET421	0.000	
136	   C	65.464	25.306	68.175	C.2	17	MET421	0.000	
137	   O	64.989	26.266	67.583	O.2	17	MET421	0.000	
138	  CB	66.764	26.427	70.019	C.3	17	MET421	0.000	
139	  CG	68.244	26.357	69.911	C.3	17	MET421	0.000	
140	  SD	69.040	27.989	69.709	S.3	17	MET421	0.000	
141	  CE	68.655	28.724	71.288	C.3	17	MET421	0.000	
142	   N	62.064	26.591	67.362	N.3	18	ILE424	0.000	
143	  CA	62.014	28.050	67.353	C.3	18	ILE424	0.000	
144	   C	62.833	28.671	66.258	C.2	18	ILE424	0.000	
145	   O	62.454	29.564	65.483	O.2	18	ILE424	0.000	
146	  CB	62.365	28.585	68.734	C.3	18	ILE424	0.000	
147	 CG1	61.957	27.488	69.748	C.3	18	ILE424	0.000	
148	 CG2	61.546	29.853	68.939	C.3	18	ILE424	0.000	
149	 CD1	61.539	28.004	71.086	C.3	18	ILE424	0.000	
150	   N	64.032	28.110	66.119	N.am	19	PHE425	0.000	
151	  CA	64.956	28.558	65.078	C.3	19	PHE425	0.000	
152	   C	64.259	28.554	63.730	C.2	19	PHE425	0.000	
153	   O	64.333	29.486	62.912	O.2	19	PHE425	0.000	
154	  CB	66.079	27.557	65.115	C.3	19	PHE425	0.000	
155	  CG	67.384	28.056	64.616	C.2	19	PHE425	0.000	
156	 CD1	67.534	28.250	63.249	C.2	19	PHE425	0.000	
157	 CD2	68.429	28.309	65.493	C.2	19	PHE425	0.000	
158	 CE1	68.734	28.713	62.751	C.2	19	PHE425	0.000	
159	 CE2	69.630	28.763	64.995	C.2	19	PHE425	0.000	
160	  CZ	69.769	28.957	63.628	C.2	19	PHE425	0.000	
161	   N	61.653	31.212	63.699	N.3	20	LEU428	0.000	
162	  CA	62.386	32.435	63.480	C.3	20	LEU428	0.000	
163	   C	62.778	32.561	62.036	C.2	20	LEU428	0.000	
164	   O	62.648	33.594	61.343	O.2	20	LEU428	0.000	
165	  CB	63.568	32.493	64.467	C.3	20	LEU428	0.000	
166	  CG	63.098	32.740	65.898	C.3	20	LEU428	0.000	
167	 CD1	64.057	32.285	66.969	C.3	20	LEU428	0.000	
168	 CD2	62.723	34.177	66.125	C.3	20	LEU428	0.000	
169	   N	60.058	30.267	73.515	N.3	21	GLY521	0.000	
170	  CA	61.432	30.412	73.867	C.3	21	GLY521	0.000	
171	   C	61.658	30.534	75.347	C.2	21	GLY521	0.000	
172	   O	62.701	30.165	75.890	O.2	21	GLY521	0.000	
173	   N	61.659	27.262	76.658	N.3	22	HIS524	0.000	
174	  CA	62.914	26.551	76.369	C.3	22	HIS524	0.000	
175	   C	64.007	27.149	77.237	C.2	22	HIS524	0.000	
176	   O	64.733	26.419	77.903	O.2	22	HIS524	0.000	
177	  CB	63.178	26.544	74.894	C.3	22	HIS524	0.000	
178	  CG	64.579	26.275	74.474	C.2	22	HIS524	0.000	
179	 CD2	65.544	25.505	75.037	C.2	22	HIS524	0.000	
180	 ND1	65.129	26.831	73.329	N.2	22	HIS524	0.000	
181	 CE1	66.375	26.406	73.210	C.2	22	HIS524	0.000	
182	 NE2	66.650	25.604	74.228	N.pl3	22	HIS524	0.000	
183	   N	64.000	28.462	77.419	N.am	23	LEU525	0.000	
184	  CA	64.976	29.072	78.309	C.3	23	LEU525	0.000	
185	   C	64.853	28.613	79.748	C.2	23	LEU525	0.000	
186	   O	65.872	28.438	80.422	O.2	23	LEU525	0.000	
187	  CB	64.874	30.586	78.208	C.3	23	LEU525	0.000	
188	  CG	66.064	31.385	77.682	C.3	23	LEU525	0.000	
189	 CD1	66.814	30.680	76.575	C.3	23	LEU525	0.000	
190	 CD2	65.590	32.752	77.232	C.3	23	LEU525	0.000	
191	   N	64.112	39.148	86.959	N.3	24	LEU536	0.000	
192	  CA	64.158	40.084	85.833	C.3	24	LEU536	0.000	
193	   C	63.555	41.427	86.201	C.2	24	LEU536	0.000	
194	   O	64.072	42.485	85.817	O.2	24	LEU536	0.000	
195	  CB	63.499	39.485	84.625	C.3	24	LEU536	0.000	
196	  CG	63.456	40.289	83.359	C.3	24	LEU536	0.000	
197	 CD1	64.733	41.039	83.096	C.3	24	LEU536	0.000	
198	 CD2	63.167	39.343	82.203	C.3	24	LEU536	0.000	
199	   N	65.864	43.356	88.177	N.3	25	LEU539	0.000	
200	  CA	66.891	43.778	87.247	C.3	25	LEU539	0.000	
201	   C	66.464	44.977	86.424	C.2	25	LEU539	0.000	
202	   O	67.198	45.960	86.300	O.2	25	LEU539	0.000	
203	  CB	67.152	42.613	86.314	C.3	25	LEU539	0.000	
204	  CG	68.591	42.098	86.337	C.3	25	LEU539	0.000	
205	 CD1	68.627	40.824	85.472	C.3	25	LEU539	0.000	
206	 CD2	69.575	43.132	85.869	C.3	25	LEU539	0.000	
@<TRIPOS>BOND
1 1 2 1
2 2 3 1
3 2 5 1
4 3 4 2
5 5 6 1
6 6 7 1
7 7 8 1
8 9 10 1
9 10 11 1
10 10 13 1
11 11 12 2
12 11 17 1
13 13 14 1
14 14 15 1
15 14 16 1
16 17 18 1
17 18 19 1
18 18 21 1
19 19 20 2
20 21 22 1
21 21 23 1
22 24 25 1
23 25 26 1
24 25 28 1
25 26 27 2
26 26 32 1
27 28 29 1
28 29 30 1
29 29 31 1
30 32 33 1
31 33 34 1
32 33 36 1
33 34 35 2
34 34 37 1
35 37 38 1
36 38 39 1
37 38 41 1
38 39 40 2
39 41 42 1
40 42 43 2
41 42 44 1
42 45 46 1
43 46 47 1
44 46 49 1
45 47 48 2
46 47 54 1
47 49 50 1
48 50 51 1
49 51 52 2
50 51 53 1
51 54 55 1
52 55 56 1
53 55 58 1
54 56 57 2
55 58 59 1
56 59 60 1
57 59 61 1
58 62 63 1
59 63 64 1
60 63 66 1
61 64 65 2
62 64 76 1
63 66 67 1
64 67 68 2
65 67 69 1
66 68 72 1
67 69 70 2
68 69 71 1
69 70 73 1
70 71 74 2
71 70 72 1
72 73 75 2
73 74 75 1
74 76 77 1
75 77 78 1
76 77 80 1
77 78 79 2
78 80 81 1
79 81 82 1
80 81 83 1
81 84 85 1
82 85 86 1
83 85 88 1
84 86 87 2
85 86 92 1
86 88 89 1
87 89 90 1
88 89 91 1
89 92 93 1
90 93 94 1
91 93 96 1
92 94 95 2
93 96 97 1
94 97 98 1
95 98 99 1
96 100 101 1
97 101 102 1
98 101 104 1
99 102 103 2
100 104 105 1
101 105 106 1
102 105 107 1
103 108 109 1
104 109 110 1
105 109 112 1
106 110 111 2
107 112 113 1
108 113 114 1
109 114 115 1
110 115 116 1
111 116 117 2
112 116 118 1
113 119 120 1
114 120 121 1
115 120 123 1
116 121 122 2
117 123 124 1
118 124 125 2
119 124 126 1
120 125 127 1
121 126 128 2
122 127 129 2
123 128 129 1
124 130 131 1
125 131 132 1
126 132 133 2
127 132 134 1
128 134 135 1
129 135 136 1
130 135 138 1
131 136 137 2
132 138 139 1
133 139 140 1
134 140 141 1
135 142 143 1
136 143 144 1
137 143 146 1
138 144 145 2
139 144 150 1
140 146 147 1
141 146 148 1
142 147 149 1
143 150 151 1
144 151 152 1
145 151 154 1
146 152 153 2
147 154 155 1
148 155 156 2
149 155 157 1
150 156 158 1
151 157 159 2
152 158 160 2
153 159 160 1
154 161 162 1
155 162 163 1
156 162 165 1
157 163 164 2
158 165 166 1
159 166 167 1
160 166 168 1
161 169 170 1
162 170 171 1
163 171 172 2
164 173 174 1
165 174 175 1
166 174 177 1
167 175 176 2
168 175 183 1
169 177 178 1
170 178 179 2
171 178 180 1
172 179 182 1
173 180 181 2
174 181 182 1
175 183 184 1
176 184 185 1
177 184 187 1
178 185 186 2
179 187 188 1
180 188 189 1
181 188 190 1
182 191 192 1
183 192 193 1
184 192 195 1
185 193 194 2
186 195 196 1
187 196 197 1
188 196 198 1
189 199 200 1
190 200 201 1
191 200 203 1
192 201 202 2
193 203 204 1
194 204 205 1
195 204 206 1
@<TRIPOS>SUBSTRUCTURE
1	MET343	1	RESIDUE	1 A	MET
2	LEU346	9	RESIDUE	1 A	LEU
3	THR347	17	RESIDUE	1 A	THR
4	LEU349	24	RESIDUE	1 A	LEU
5	ALA350	32	RESIDUE	1 A	ALA
6	ASP351	37	RESIDUE	1 A	ASP
7	GLU353	45	RESIDUE	1 A	GLU
8	LEU354	54	RESIDUE	1 A	LEU
9	TRP383	62	RESIDUE	1 A	TRP
10	LEU384	76	RESIDUE	1 A	LEU
11	LEU387	84	RESIDUE	1 A	LEU
12	MET388	92	RESIDUE	1 A	MET
13	LEU391	100	RESIDUE	1 A	LEU
14	ARG394	108	RESIDUE	1 A	ARG
15	PHE404	119	RESIDUE	1 A	PHE
16	GLY420	130	RESIDUE	1 A	GLY
17	MET421	134	RESIDUE	1 A	MET
18	ILE424	142	RESIDUE	1 A	ILE
19	PHE425	150	RESIDUE	1 A	PHE
20	LEU428	161	RESIDUE	1 A	LEU
21	GLY521	169	RESIDUE	1 A	GLY
22	HIS524	173	RESIDUE	1 A	HIS
23	LEU525	183	RESIDUE	1 A	LEU
24	LEU536	191	RESIDUE	1 A	LEU
25	LEU539	199	RESIDUE	1 A	LEU
