# created with PyMOL 2.5.0
@<TRIPOS>MOLECULE
1nde
212 202 26              
SMALL
USER_CHARGES
@<TRIPOS>ATOM
1	   N	115.359	13.461	-105.995	N.3	1	MET295	0.000	
2	  CA	115.231	12.025	-105.811	C.3	1	MET295	0.000	
3	   C	115.498	11.511	-104.408	C.2	1	MET295	0.000	
4	   O	115.131	10.385	-104.084	O.2	1	MET295	0.000	
5	  CB	116.070	11.275	-106.853	C.3	1	MET295	0.000	
6	  CG	115.236	10.987	-108.100	C.3	1	MET295	0.000	
7	  SD	116.099	10.520	-109.597	S.3	1	MET295	0.000	
8	  CE	116.015	12.045	-110.513	C.3	1	MET295	0.000	
9	   N	111.835	12.145	-103.235	N.3	2	LEU298	0.000	
10	  CA	110.917	11.196	-103.864	C.3	2	LEU298	0.000	
11	   C	111.055	9.767	-103.350	C.2	2	LEU298	0.000	
12	   O	110.097	9.000	-103.394	O.2	2	LEU298	0.000	
13	  CB	111.081	11.198	-105.384	C.3	2	LEU298	0.000	
14	  CG	110.590	12.448	-106.112	C.3	2	LEU298	0.000	
15	 CD1	110.634	12.220	-107.617	C.3	2	LEU298	0.000	
16	 CD2	109.182	12.761	-105.658	C.3	2	LEU298	0.000	
17	   N	112.237	9.406	-102.865	N.am	3	THR299	0.000	
18	  CA	112.440	8.062	-102.348	C.3	3	THR299	0.000	
19	   C	111.899	7.991	-100.941	C.2	3	THR299	0.000	
20	   O	111.279	7.004	-100.550	O.2	3	THR299	0.000	
21	  CB	113.923	7.673	-102.272	C.3	3	THR299	0.000	
22	 CG2	114.580	7.786	-103.626	C.3	3	THR299	0.000	
23	 OG1	114.580	8.533	-101.338	O.3	3	THR299	0.000	
24	   N	109.642	9.774	-99.937	N.3	4	LEU301	0.000	
25	  CA	108.215	10.045	-100.065	C.3	4	LEU301	0.000	
26	   C	107.460	8.753	-100.347	C.2	4	LEU301	0.000	
27	   O	106.599	8.337	-99.567	O.2	4	LEU301	0.000	
28	  CB	107.937	11.025	-101.206	C.3	4	LEU301	0.000	
29	  CG	106.735	11.960	-100.979	C.3	4	LEU301	0.000	
30	 CD1	106.353	12.659	-102.274	C.3	4	LEU301	0.000	
31	 CD2	105.564	11.171	-100.442	C.3	4	LEU301	0.000	
32	   N	107.791	8.125	-101.472	N.am	5	ALA302	0.000	
33	  CA	107.147	6.885	-101.885	C.3	5	ALA302	0.000	
34	   C	107.316	5.723	-100.912	C.2	5	ALA302	0.000	
35	   O	106.566	4.745	-100.978	O.2	5	ALA302	0.000	
36	  CB	107.634	6.490	-103.246	C.3	5	ALA302	0.000	
37	   N	108.294	5.809	-100.016	N.am	6	ASP303	0.000	
38	  CA	108.472	4.737	-99.053	C.3	6	ASP303	0.000	
39	   C	107.554	4.918	-97.875	C.2	6	ASP303	0.000	
40	   O	107.009	3.944	-97.367	O.2	6	ASP303	0.000	
41	  CB	109.915	4.647	-98.608	C.3	6	ASP303	0.000	
42	  CG	110.756	3.880	-99.591	C.2	6	ASP303	0.000	
43	 OD1	111.123	4.447	-100.633	O.co2	6	ASP303	0.000	
44	 OD2	111.024	2.692	-99.335	O.co2	6	ASP303	0.000	
45	   N	104.747	6.484	-98.041	N.3	7	GLU305	0.000	
46	  CA	103.465	6.186	-98.663	C.3	7	GLU305	0.000	
47	   C	103.214	4.701	-98.868	C.2	7	GLU305	0.000	
48	   O	102.111	4.213	-98.601	O.2	7	GLU305	0.000	
49	  CB	103.349	6.906	-99.996	C.3	7	GLU305	0.000	
50	  CG	102.927	8.339	-99.860	C.3	7	GLU305	0.000	
51	  CD	102.795	9.033	-101.206	C.2	7	GLU305	0.000	
52	 OE1	102.085	8.530	-102.090	O.co2	7	GLU305	0.000	
53	 OE2	103.393	10.102	-101.397	O.co2	7	GLU305	0.000	
54	   N	104.227	3.974	-99.329	N.am	8	LEU306	0.000	
55	  CA	104.053	2.549	-99.548	C.3	8	LEU306	0.000	
56	   C	103.606	1.820	-98.286	C.2	8	LEU306	0.000	
57	   O	102.981	0.759	-98.360	O.2	8	LEU306	0.000	
58	  CB	105.331	1.931	-100.098	C.3	8	LEU306	0.000	
59	  CG	105.248	1.673	-101.599	C.3	8	LEU306	0.000	
60	 CD1	106.610	1.283	-102.124	C.3	8	LEU306	0.000	
61	 CD2	104.228	0.575	-101.874	C.3	8	LEU306	0.000	
62	   N	101.793	-0.678	-106.849	N.3	9	TRP335	0.000	
63	  CA	102.266	0.447	-106.062	C.3	9	TRP335	0.000	
64	   C	102.653	1.667	-106.877	C.2	9	TRP335	0.000	
65	   O	102.272	2.790	-106.543	O.2	9	TRP335	0.000	
66	  CB	103.407	0.038	-105.119	C.3	9	TRP335	0.000	
67	  CG	104.718	-0.361	-105.740	C.2	9	TRP335	0.000	
68	 CD1	105.141	-1.629	-106.016	C.2	9	TRP335	0.000	
69	 CD2	105.814	0.503	-106.066	C.2	9	TRP335	0.000	
70	 CE2	106.870	-0.312	-106.524	C.2	9	TRP335	0.000	
71	 CE3	106.006	1.889	-106.014	C.2	9	TRP335	0.000	
72	 NE1	106.433	-1.610	-106.482	N.pl3	9	TRP335	0.000	
73	 CZ2	108.101	0.208	-106.926	C.2	9	TRP335	0.000	
74	 CZ3	107.233	2.410	-106.417	C.2	9	TRP335	0.000	
75	 CH2	108.264	1.567	-106.866	C.2	9	TRP335	0.000	
76	   N	103.373	1.450	-107.965	N.am	10	MET336	0.000	
77	  CA	103.806	2.553	-108.811	C.3	10	MET336	0.000	
78	   C	102.646	3.346	-109.423	C.2	10	MET336	0.000	
79	   O	102.626	4.580	-109.338	O.2	10	MET336	0.000	
80	  CB	104.716	2.015	-109.914	C.3	10	MET336	0.000	
81	  CG	105.423	3.069	-110.742	C.3	10	MET336	0.000	
82	  SD	106.461	4.174	-109.782	S.3	10	MET336	0.000	
83	  CE	105.958	5.719	-110.507	C.3	10	MET336	0.000	
84	   N	100.464	4.933	-106.753	N.3	11	LEU339	0.000	
85	  CA	101.119	6.140	-106.261	C.3	11	LEU339	0.000	
86	   C	100.763	7.257	-107.224	C.2	11	LEU339	0.000	
87	   O	100.227	8.283	-106.838	O.2	11	LEU339	0.000	
88	  CB	102.648	5.992	-106.247	C.3	11	LEU339	0.000	
89	  CG	103.371	5.226	-105.133	C.3	11	LEU339	0.000	
90	 CD1	104.888	5.447	-105.249	C.3	11	LEU339	0.000	
91	 CD2	102.890	5.694	-103.772	C.3	11	LEU339	0.000	
92	   N	101.068	7.045	-108.492	N.am	12	MET340	0.000	
93	  CA	100.799	8.057	-109.493	C.3	12	MET340	0.000	
94	   C	99.314	8.394	-109.651	C.2	12	MET340	0.000	
95	   O	98.978	9.475	-110.137	O.2	12	MET340	0.000	
96	  CB	101.401	7.621	-110.829	C.3	12	MET340	0.000	
97	  CG	102.879	7.295	-110.746	C.3	12	MET340	0.000	
98	  SD	103.547	6.799	-112.327	S.3	12	MET340	0.000	
99	  CE	104.809	8.012	-112.566	C.3	12	MET340	0.000	
100	   N	97.235	8.715	-107.165	N.3	13	GLY342	0.000	
101	  CA	96.993	9.670	-106.100	C.3	13	GLY342	0.000	
102	   C	97.700	10.977	-106.382	C.2	13	GLY342	0.000	
103	   O	97.228	12.034	-105.977	O.2	13	GLY342	0.000	
104	   N	98.835	10.910	-107.073	N.am	14	LEU343	0.000	
105	  CA	99.579	12.114	-107.414	C.3	14	LEU343	0.000	
106	   C	98.730	12.935	-108.370	C.2	14	LEU343	0.000	
107	   O	98.518	14.125	-108.154	O.2	14	LEU343	0.000	
108	  CB	100.909	11.765	-108.097	C.3	14	LEU343	0.000	
109	  CG	101.687	12.956	-108.688	C.3	14	LEU343	0.000	
110	 CD1	102.063	13.922	-107.578	C.3	14	LEU343	0.000	
111	 CD2	102.922	12.466	-109.408	C.3	14	LEU343	0.000	
112	   N	95.833	14.593	-106.840	N.3	15	ARG346	0.000	
113	  CA	96.197	15.720	-106.007	C.3	15	ARG346	0.000	
114	   C	96.573	16.909	-106.876	C.2	15	ARG346	0.000	
115	   O	96.492	18.048	-106.434	O.2	15	ARG346	0.000	
116	  CB	97.378	15.355	-105.115	C.3	15	ARG346	0.000	
117	  CG	97.003	15.017	-103.683	C.3	15	ARG346	0.000	
118	  CD	98.164	14.350	-102.983	C.3	15	ARG346	0.000	
119	  NE	98.527	13.159	-103.723	N.pl3	15	ARG346	0.000	
120	  CZ	99.761	12.707	-103.870	C.cat	15	ARG346	0.000	
121	 NH1	100.787	13.339	-103.319	N.pl3	15	ARG346	0.000	
122	 NH2	99.962	11.636	-104.611	N.pl3	15	ARG346	0.000	
123	   N	103.240	16.522	-105.445	N.3	16	PHE356	0.000	
124	  CA	103.728	15.269	-104.862	C.3	16	PHE356	0.000	
125	   C	103.429	15.078	-103.380	C.2	16	PHE356	0.000	
126	   O	103.440	13.946	-102.883	O.2	16	PHE356	0.000	
127	  CB	105.233	15.135	-105.045	C.3	16	PHE356	0.000	
128	  CG	105.642	14.755	-106.423	C.2	16	PHE356	0.000	
129	 CD1	105.612	15.691	-107.453	C.2	16	PHE356	0.000	
130	 CD2	106.060	13.457	-106.699	C.2	16	PHE356	0.000	
131	 CE1	105.995	15.348	-108.754	C.2	16	PHE356	0.000	
132	 CE2	106.449	13.092	-107.995	C.2	16	PHE356	0.000	
133	  CZ	106.416	14.044	-109.029	C.2	16	PHE356	0.000	
134	   N	113.455	12.528	-116.238	N.3	17	ILE373	0.000	
135	  CA	112.283	12.892	-115.458	C.3	17	ILE373	0.000	
136	   C	111.256	13.737	-116.195	C.2	17	ILE373	0.000	
137	   O	110.054	13.512	-116.058	O.2	17	ILE373	0.000	
138	  CB	112.711	13.615	-114.178	C.3	17	ILE373	0.000	
139	 CG1	113.280	12.584	-113.209	C.3	17	ILE373	0.000	
140	 CG2	111.552	14.391	-113.582	C.3	17	ILE373	0.000	
141	 CD1	113.378	13.060	-111.780	C.3	17	ILE373	0.000	
142	   N	108.263	12.012	-118.030	N.3	18	ILE376	0.000	
143	  CA	107.199	11.593	-117.128	C.3	18	ILE376	0.000	
144	   C	106.236	12.722	-116.756	C.2	18	ILE376	0.000	
145	   O	105.020	12.539	-116.829	O.2	18	ILE376	0.000	
146	  CB	107.779	10.990	-115.839	C.3	18	ILE376	0.000	
147	 CG1	108.561	9.720	-116.169	C.3	18	ILE376	0.000	
148	 CG2	106.664	10.672	-114.867	C.3	18	ILE376	0.000	
149	 CD1	109.096	8.986	-114.955	C.3	18	ILE376	0.000	
150	   N	106.764	13.880	-116.356	N.am	19	PHE377	0.000	
151	  CA	105.900	15.005	-115.990	C.3	19	PHE377	0.000	
152	   C	104.914	15.297	-117.103	C.2	19	PHE377	0.000	
153	   O	103.742	15.566	-116.843	O.2	19	PHE377	0.000	
154	  CB	106.721	16.271	-115.684	C.3	19	PHE377	0.000	
155	  CG	107.426	16.231	-114.356	C.2	19	PHE377	0.000	
156	 CD1	107.596	17.389	-113.617	C.2	19	PHE377	0.000	
157	 CD2	107.920	15.030	-113.841	C.2	19	PHE377	0.000	
158	 CE1	108.248	17.354	-112.381	C.2	19	PHE377	0.000	
159	 CE2	108.573	14.985	-112.607	C.2	19	PHE377	0.000	
160	  CZ	108.738	16.146	-111.877	C.2	19	PHE377	0.000	
161	   N	102.352	12.505	-116.842	N.3	20	LEU380	0.000	
162	  CA	101.473	12.694	-115.700	C.3	20	LEU380	0.000	
163	   C	100.548	13.867	-115.994	C.2	20	LEU380	0.000	
164	   O	99.326	13.718	-116.015	O.2	20	LEU380	0.000	
165	  CB	102.289	12.980	-114.445	C.3	20	LEU380	0.000	
166	  CG	103.266	11.871	-114.046	C.3	20	LEU380	0.000	
167	 CD1	104.015	12.287	-112.804	C.3	20	LEU380	0.000	
168	 CD2	102.515	10.573	-113.792	C.3	20	LEU380	0.000	
169	   N	108.171	5.245	-115.390	N.3	21	GLY472	0.000	
170	  CA	108.696	5.619	-114.095	C.3	21	GLY472	0.000	
171	   C	109.537	4.525	-113.495	C.2	21	GLY472	0.000	
172	   O	110.684	4.761	-113.160	O.2	21	GLY472	0.000	
173	   N	112.927	4.302	-114.783	N.3	22	HIS475	0.000	
174	  CA	113.844	5.372	-114.404	C.3	22	HIS475	0.000	
175	   C	114.333	5.049	-113.006	C.2	22	HIS475	0.000	
176	   O	115.477	5.311	-112.647	O.2	22	HIS475	0.000	
177	  CB	113.100	6.701	-114.392	C.3	22	HIS475	0.000	
178	  CG	113.940	7.869	-114.797	C.2	22	HIS475	0.000	
179	 CD2	113.867	8.683	-115.878	C.2	22	HIS475	0.000	
180	 ND1	115.000	8.323	-114.044	N.2	22	HIS475	0.000	
181	 CE1	115.545	9.369	-114.641	C.2	22	HIS475	0.000	
182	 NE2	114.874	9.607	-115.757	N.pl3	22	HIS475	0.000	
183	   N	113.440	4.463	-112.225	N.am	23	LEU476	0.000	
184	  CA	113.746	4.074	-110.863	C.3	23	LEU476	0.000	
185	   C	114.876	3.057	-110.883	C.2	23	LEU476	0.000	
186	   O	115.954	3.311	-110.352	O.2	23	LEU476	0.000	
187	  CB	112.510	3.462	-110.206	C.3	23	LEU476	0.000	
188	  CG	112.764	2.915	-108.814	C.3	23	LEU476	0.000	
189	 CD1	113.278	4.039	-107.961	C.3	23	LEU476	0.000	
190	 CD2	111.507	2.301	-108.235	C.3	23	LEU476	0.000	
191	   N	119.155	3.108	-111.623	N.3	24	MET479	0.000	
192	  CA	119.974	3.702	-110.566	C.3	24	MET479	0.000	
193	   C	121.012	2.646	-110.183	C.2	24	MET479	0.000	
194	   O	122.177	2.739	-110.584	O.2	24	MET479	0.000	
195	  CB	119.115	4.069	-109.352	C.3	24	MET479	0.000	
196	  CG	118.025	5.088	-109.648	C.3	24	MET479	0.000	
197	  SD	116.952	5.426	-108.220	S.3	24	MET479	0.000	
198	  CE	117.136	7.225	-108.037	C.3	24	MET479	0.000	
199	   N	112.269	-1.563	-105.585	N.3	25	PRO486	0.000	
200	  CA	111.375	-2.726	-105.661	C.3	25	PRO486	0.000	
201	   C	111.120	-3.370	-104.293	C.2	25	PRO486	0.000	
202	   O	111.959	-4.096	-103.756	O.2	25	PRO486	0.000	
203	  CB	112.101	-3.639	-106.640	C.3	25	PRO486	0.000	
204	  CG	112.669	-2.637	-107.616	C.3	25	PRO486	0.000	
205	  CD	113.240	-1.576	-106.694	C.3	25	PRO486	0.000	
206	   N	109.931	-3.102	-103.760	N.am	26	VAL487	0.000	
207	  CA	109.511	-3.567	-102.448	C.3	26	VAL487	0.000	
208	   C	108.781	-4.910	-102.356	C.2	26	VAL487	0.000	
209	   O	107.553	-4.955	-102.447	O.2	26	VAL487	0.000	
210	  CB	108.619	-2.515	-101.816	C.3	26	VAL487	0.000	
211	 CG1	108.703	-2.601	-100.307	C.3	26	VAL487	0.000	
212	 CG2	109.027	-1.144	-102.313	C.3	26	VAL487	0.000	
@<TRIPOS>BOND
1 1 2 1
2 2 3 1
3 2 5 1
4 3 4 2
5 5 6 1
6 6 7 1
7 7 8 1
8 9 10 1
9 10 11 1
10 10 13 1
11 11 12 2
12 11 17 1
13 13 14 1
14 14 15 1
15 14 16 1
16 17 18 1
17 18 19 1
18 18 21 1
19 19 20 2
20 21 22 1
21 21 23 1
22 24 25 1
23 25 26 1
24 25 28 1
25 26 27 2
26 26 32 1
27 28 29 1
28 29 30 1
29 29 31 1
30 32 33 1
31 33 34 1
32 33 36 1
33 34 35 2
34 34 37 1
35 37 38 1
36 38 39 1
37 38 41 1
38 39 40 2
39 41 42 1
40 42 43 2
41 42 44 1
42 45 46 1
43 46 47 1
44 46 49 1
45 47 48 2
46 47 54 1
47 49 50 1
48 50 51 1
49 51 52 2
50 51 53 1
51 54 55 1
52 55 56 1
53 55 58 1
54 56 57 2
55 58 59 1
56 59 60 1
57 59 61 1
58 62 63 1
59 63 64 1
60 63 66 1
61 64 65 2
62 64 76 1
63 66 67 1
64 67 68 2
65 67 69 1
66 68 72 1
67 69 70 2
68 69 71 1
69 70 73 1
70 71 74 2
71 70 72 1
72 73 75 2
73 74 75 1
74 76 77 1
75 77 78 1
76 77 80 1
77 78 79 2
78 80 81 1
79 81 82 1
80 82 83 1
81 84 85 1
82 85 86 1
83 85 88 1
84 86 87 2
85 86 92 1
86 88 89 1
87 89 90 1
88 89 91 1
89 92 93 1
90 93 94 1
91 93 96 1
92 94 95 2
93 96 97 1
94 97 98 1
95 98 99 1
96 100 101 1
97 101 102 1
98 102 103 2
99 102 104 1
100 104 105 1
101 105 106 1
102 105 108 1
103 106 107 2
104 108 109 1
105 109 110 1
106 109 111 1
107 112 113 1
108 113 114 1
109 113 116 1
110 114 115 2
111 116 117 1
112 117 118 1
113 118 119 1
114 119 120 1
115 120 121 2
116 120 122 1
117 123 124 1
118 124 125 1
119 124 127 1
120 125 126 2
121 127 128 1
122 128 129 2
123 128 130 1
124 129 131 1
125 130 132 2
126 131 133 2
127 132 133 1
128 134 135 1
129 135 136 1
130 135 138 1
131 136 137 2
132 138 139 1
133 138 140 1
134 139 141 1
135 142 143 1
136 143 144 1
137 143 146 1
138 144 145 2
139 144 150 1
140 146 147 1
141 146 148 1
142 147 149 1
143 150 151 1
144 151 152 1
145 151 154 1
146 152 153 2
147 154 155 1
148 155 156 2
149 155 157 1
150 156 158 1
151 157 159 2
152 158 160 2
153 159 160 1
154 161 162 1
155 162 163 1
156 162 165 1
157 163 164 2
158 165 166 1
159 166 167 1
160 166 168 1
161 169 170 1
162 170 171 1
163 171 172 2
164 173 174 1
165 174 175 1
166 174 177 1
167 175 176 2
168 175 183 1
169 177 178 1
170 178 179 2
171 178 180 1
172 179 182 1
173 180 181 2
174 181 182 1
175 183 184 1
176 184 185 1
177 184 187 1
178 185 186 2
179 187 188 1
180 188 189 1
181 188 190 1
182 191 192 1
183 192 193 1
184 192 195 1
185 193 194 2
186 195 196 1
187 196 197 1
188 197 198 1
189 199 200 1
190 199 205 1
191 200 201 1
192 200 203 1
193 201 202 2
194 201 206 1
195 203 204 1
196 204 205 1
197 206 207 1
198 207 208 1
199 207 210 1
200 208 209 2
201 210 211 1
202 210 212 1
@<TRIPOS>SUBSTRUCTURE
1	MET295	1	RESIDUE	1 A	MET
2	LEU298	9	RESIDUE	1 A	LEU
3	THR299	17	RESIDUE	1 A	THR
4	LEU301	24	RESIDUE	1 A	LEU
5	ALA302	32	RESIDUE	1 A	ALA
6	ASP303	37	RESIDUE	1 A	ASP
7	GLU305	45	RESIDUE	1 A	GLU
8	LEU306	54	RESIDUE	1 A	LEU
9	TRP335	62	RESIDUE	1 A	TRP
10	MET336	76	RESIDUE	1 A	MET
11	LEU339	84	RESIDUE	1 A	LEU
12	MET340	92	RESIDUE	1 A	MET
13	GLY342	100	RESIDUE	1 A	GLY
14	LEU343	104	RESIDUE	1 A	LEU
15	ARG346	112	RESIDUE	1 A	ARG
16	PHE356	123	RESIDUE	1 A	PHE
17	ILE373	134	RESIDUE	1 A	ILE
18	ILE376	142	RESIDUE	1 A	ILE
19	PHE377	150	RESIDUE	1 A	PHE
20	LEU380	161	RESIDUE	1 A	LEU
21	GLY472	169	RESIDUE	1 A	GLY
22	HIS475	173	RESIDUE	1 A	HIS
23	LEU476	183	RESIDUE	1 A	LEU
24	MET479	191	RESIDUE	1 A	MET
25	PRO486	199	RESIDUE	1 A	PRO
26	VAL487	206	RESIDUE	1 A	VAL
