# created with PyMOL 2.5.0
@<TRIPOS>MOLECULE
1qkn
195 186 23              
SMALL
USER_CHARGES
@<TRIPOS>ATOM
1	   N	19.782	20.485	10.681	N.3	1	MET250	0.000	
2	  CA	20.545	21.561	10.086	C.3	1	MET250	0.000	
3	   C	20.544	21.534	8.563	C.2	1	MET250	0.000	
4	   O	20.536	22.588	7.913	O.2	1	MET250	0.000	
5	  CB	21.994	21.566	10.568	C.3	1	MET250	0.000	
6	  CG	22.195	21.722	12.058	C.3	1	MET250	0.000	
7	  SD	21.670	23.305	12.739	S.3	1	MET250	0.000	
8	  CE	19.960	22.968	13.122	C.3	1	MET250	0.000	
9	   N	17.409	23.102	7.475	N.3	2	LEU253	0.000	
10	  CA	17.580	24.492	7.819	C.3	2	LEU253	0.000	
11	   C	18.482	25.181	6.812	C.2	2	LEU253	0.000	
12	   O	18.114	26.272	6.367	O.2	2	LEU253	0.000	
13	  CB	18.114	24.672	9.247	C.3	2	LEU253	0.000	
14	  CG	17.147	24.092	10.272	C.3	2	LEU253	0.000	
15	 CD1	17.859	23.861	11.591	C.3	2	LEU253	0.000	
16	 CD2	15.920	24.967	10.431	C.3	2	LEU253	0.000	
17	   N	19.596	24.560	6.447	N.am	3	THR254	0.000	
18	  CA	20.509	25.159	5.491	C.3	3	THR254	0.000	
19	   C	19.815	25.308	4.144	C.2	3	THR254	0.000	
20	   O	20.050	26.316	3.490	O.2	3	THR254	0.000	
21	  CB	21.817	24.379	5.281	C.3	3	THR254	0.000	
22	 CG2	22.605	24.885	4.079	C.3	3	THR254	0.000	
23	 OG1	22.701	24.458	6.412	O.3	3	THR254	0.000	
24	   N	16.655	25.671	3.605	N.3	4	LEU256	0.000	
25	  CA	15.620	26.707	3.747	C.3	4	LEU256	0.000	
26	   C	16.244	28.096	3.626	C.2	4	LEU256	0.000	
27	   O	15.802	28.899	2.805	O.2	4	LEU256	0.000	
28	  CB	14.880	26.469	5.042	C.3	4	LEU256	0.000	
29	  CG	13.850	27.557	5.378	C.3	4	LEU256	0.000	
30	 CD1	12.754	27.671	4.331	C.3	4	LEU256	0.000	
31	 CD2	13.314	27.295	6.754	C.3	4	LEU256	0.000	
32	   N	17.286	28.357	4.394	N.am	5	ALA257	0.000	
33	  CA	17.976	29.631	4.384	C.3	5	ALA257	0.000	
34	   C	18.428	29.990	2.996	C.2	5	ALA257	0.000	
35	   O	18.205	31.120	2.535	O.2	5	ALA257	0.000	
36	  CB	19.147	29.690	5.367	C.3	5	ALA257	0.000	
37	   N	19.098	29.047	2.322	N.am	6	ASP258	0.000	
38	  CA	19.582	29.304	0.969	C.3	6	ASP258	0.000	
39	   C	18.446	29.680	0.041	C.2	6	ASP258	0.000	
40	   O	18.688	30.558	-0.793	O.2	6	ASP258	0.000	
41	  CB	20.315	28.050	0.453	C.3	6	ASP258	0.000	
42	  CG	21.550	27.849	1.326	C.2	6	ASP258	0.000	
43	 OD1	22.120	28.887	1.734	O.co2	6	ASP258	0.000	
44	 OD2	21.867	26.657	1.559	O.co2	6	ASP258	0.000	
45	   N	15.646	31.209	0.912	N.3	7	GLU260	0.000	
46	  CA	15.259	32.520	1.420	C.3	7	GLU260	0.000	
47	   C	16.275	33.581	1.050	C.2	7	GLU260	0.000	
48	   O	15.891	34.709	0.706	O.2	7	GLU260	0.000	
49	  CB	15.041	32.510	2.928	C.3	7	GLU260	0.000	
50	  CG	14.038	31.509	3.436	C.3	7	GLU260	0.000	
51	  CD	13.659	31.720	4.884	C.2	7	GLU260	0.000	
52	 OE1	12.899	32.677	5.132	O.co2	7	GLU260	0.000	
53	 OE2	14.130	30.920	5.694	O.co2	7	GLU260	0.000	
54	   N	17.569	33.296	1.084	N.am	8	LEU261	0.000	
55	  CA	18.574	34.286	0.706	C.3	8	LEU261	0.000	
56	   C	18.443	34.652	-0.766	C.2	8	LEU261	0.000	
57	   O	18.744	35.793	-1.150	O.2	8	LEU261	0.000	
58	  CB	19.973	33.797	1.086	C.3	8	LEU261	0.000	
59	  CG	20.163	33.740	2.613	C.3	8	LEU261	0.000	
60	 CD1	21.273	32.792	3.027	C.3	8	LEU261	0.000	
61	 CD2	20.389	35.157	3.115	C.3	8	LEU261	0.000	
62	   N	21.842	39.776	6.694	N.3	9	TRP290	0.000	
63	  CA	21.049	38.634	6.221	C.3	9	TRP290	0.000	
64	   C	20.539	37.778	7.344	C.2	9	TRP290	0.000	
65	   O	19.348	37.455	7.344	O.2	9	TRP290	0.000	
66	  CB	21.773	37.913	5.068	C.3	9	TRP290	0.000	
67	  CG	23.009	37.150	5.435	C.2	9	TRP290	0.000	
68	 CD1	24.307	37.519	5.219	C.2	9	TRP290	0.000	
69	 CD2	23.052	35.869	6.094	C.2	9	TRP290	0.000	
70	 CE2	24.402	35.547	6.268	C.2	9	TRP290	0.000	
71	 CE3	22.073	35.002	6.557	C.2	9	TRP290	0.000	
72	 NE1	25.136	36.571	5.725	N.pl3	9	TRP290	0.000	
73	 CZ2	24.834	34.366	6.870	C.2	9	TRP290	0.000	
74	 CZ3	22.475	33.831	7.164	C.2	9	TRP290	0.000	
75	 CH2	23.853	33.528	7.303	C.2	9	TRP290	0.000	
76	   N	21.314	37.364	8.352	N.am	10	MET291	0.000	
77	  CA	20.796	36.538	9.438	C.3	10	MET291	0.000	
78	   C	19.760	37.276	10.269	C.2	10	MET291	0.000	
79	   O	18.692	36.764	10.664	O.2	10	MET291	0.000	
80	  CB	22.008	36.023	10.268	C.3	10	MET291	0.000	
81	  CG	21.586	35.168	11.428	C.3	10	MET291	0.000	
82	  SD	20.836	33.599	10.933	S.3	10	MET291	0.000	
83	  CE	22.303	32.576	10.764	C.3	10	MET291	0.000	
84	   N	16.620	37.053	8.177	N.3	11	LEU294	0.000	
85	  CA	16.056	35.718	8.307	C.3	11	LEU294	0.000	
86	   C	15.372	35.554	9.665	C.2	11	LEU294	0.000	
87	   O	14.226	35.072	9.722	O.2	11	LEU294	0.000	
88	  CB	17.158	34.652	8.254	C.3	11	LEU294	0.000	
89	  CG	17.817	34.382	6.900	C.3	11	LEU294	0.000	
90	 CD1	18.662	33.110	7.059	C.3	11	LEU294	0.000	
91	 CD2	16.782	34.129	5.793	C.3	11	LEU294	0.000	
92	   N	16.077	35.967	10.729	N.am	12	MET295	0.000	
93	  CA	15.513	35.807	12.058	C.3	12	MET295	0.000	
94	   C	14.228	36.550	12.318	C.2	12	MET295	0.000	
95	   O	13.321	36.002	12.987	O.2	12	MET295	0.000	
96	  CB	16.550	36.233	13.103	C.3	12	MET295	0.000	
97	  CG	17.694	35.237	13.133	C.3	12	MET295	0.000	
98	  SD	18.982	35.541	14.315	S.3	12	MET295	0.000	
99	  CE	20.010	34.068	14.282	C.3	12	MET295	0.000	
100	   N	11.338	34.743	10.732	N.3	13	LEU298	0.000	
101	  CA	11.023	33.536	11.523	C.3	13	LEU298	0.000	
102	   C	10.214	33.961	12.731	C.2	13	LEU298	0.000	
103	   O	9.139	33.431	13.055	O.2	13	LEU298	0.000	
104	  CB	12.358	32.881	11.941	C.3	13	LEU298	0.000	
105	  CG	12.275	31.850	13.071	C.3	13	LEU298	0.000	
106	 CD1	11.171	30.825	12.736	C.3	13	LEU298	0.000	
107	 CD2	13.593	31.192	13.353	C.3	13	LEU298	0.000	
108	   N	6.706	34.815	11.703	N.3	14	ARG301	0.000	
109	  CA	5.959	33.618	11.331	C.3	14	ARG301	0.000	
110	   C	5.502	32.870	12.588	C.2	14	ARG301	0.000	
111	   O	4.358	32.410	12.611	O.2	14	ARG301	0.000	
112	  CB	6.819	32.722	10.422	C.3	14	ARG301	0.000	
113	  CG	6.874	33.250	8.988	C.3	14	ARG301	0.000	
114	  CD	7.475	32.266	8.004	C.3	14	ARG301	0.000	
115	  NE	8.772	31.673	8.399	N.pl3	14	ARG301	0.000	
116	  CZ	9.954	32.230	8.141	C.cat	14	ARG301	0.000	
117	 NH1	10.019	33.381	7.500	N.pl3	14	ARG301	0.000	
118	 NH2	11.050	31.618	8.486	N.pl3	14	ARG301	0.000	
119	   N	9.732	27.690	10.998	N.3	15	PHE311	0.000	
120	  CA	10.688	28.026	9.968	C.3	15	PHE311	0.000	
121	   C	10.065	28.023	8.567	C.2	15	PHE311	0.000	
122	   O	10.636	28.633	7.662	O.2	15	PHE311	0.000	
123	  CB	11.906	27.116	9.953	C.3	15	PHE311	0.000	
124	  CG	12.788	27.295	11.159	C.2	15	PHE311	0.000	
125	 CD1	13.932	28.063	11.019	C.2	15	PHE311	0.000	
126	 CD2	12.511	26.736	12.390	C.2	15	PHE311	0.000	
127	 CE1	14.783	28.254	12.092	C.2	15	PHE311	0.000	
128	 CE2	13.360	26.919	13.465	C.2	15	PHE311	0.000	
129	  CZ	14.510	27.689	13.315	C.2	15	PHE311	0.000	
130	   N	21.934	24.657	20.491	N.3	16	ILE328	0.000	
131	  CA	21.127	25.584	19.711	C.3	16	ILE328	0.000	
132	   C	19.864	25.938	20.483	C.2	16	ILE328	0.000	
133	   O	19.078	26.789	20.053	O.2	16	ILE328	0.000	
134	  CB	20.836	24.952	18.337	C.3	16	ILE328	0.000	
135	 CG1	20.884	26.003	17.233	C.3	16	ILE328	0.000	
136	 CG2	19.493	24.235	18.298	C.3	16	ILE328	0.000	
137	 CD1	20.728	25.494	15.820	C.3	16	ILE328	0.000	
138	   N	19.964	29.404	21.776	N.3	17	ILE331	0.000	
139	  CA	19.728	30.307	20.658	C.3	17	ILE331	0.000	
140	   C	18.224	30.260	20.310	C.2	17	ILE331	0.000	
141	   O	17.603	31.275	20.016	O.2	17	ILE331	0.000	
142	  CB	20.495	29.987	19.375	C.3	17	ILE331	0.000	
143	 CG1	21.971	29.829	19.659	C.3	17	ILE331	0.000	
144	 CG2	20.226	31.089	18.346	C.3	17	ILE331	0.000	
145	 CD1	22.668	31.069	20.157	C.3	17	ILE331	0.000	
146	   N	17.606	29.080	20.376	N.am	18	PHE332	0.000	
147	  CA	16.194	28.913	20.116	C.3	18	PHE332	0.000	
148	   C	15.384	29.628	21.187	C.2	18	PHE332	0.000	
149	   O	14.300	30.076	20.831	O.2	18	PHE332	0.000	
150	  CB	15.739	27.460	20.110	C.3	18	PHE332	0.000	
151	  CG	15.838	26.772	18.789	C.2	18	PHE332	0.000	
152	 CD1	16.755	27.171	17.834	C.2	18	PHE332	0.000	
153	 CD2	15.011	25.697	18.501	C.2	18	PHE332	0.000	
154	 CE1	16.854	26.523	16.618	C.2	18	PHE332	0.000	
155	 CE2	15.094	25.045	17.286	C.2	18	PHE332	0.000	
156	  CZ	16.017	25.458	16.341	C.2	18	PHE332	0.000	
157	   N	15.341	33.380	20.423	N.3	19	LEU335	0.000	
158	  CA	14.383	33.566	19.337	C.3	19	LEU335	0.000	
159	   C	12.954	33.477	19.814	C.2	19	LEU335	0.000	
160	   O	12.122	34.277	19.331	O.2	19	LEU335	0.000	
161	  CB	14.542	32.583	18.169	C.3	19	LEU335	0.000	
162	  CG	15.832	32.812	17.380	C.3	19	LEU335	0.000	
163	 CD1	16.273	31.538	16.664	C.3	19	LEU335	0.000	
164	 CD2	15.691	33.967	16.410	C.3	19	LEU335	0.000	
165	   N	25.144	35.941	17.804	N.3	20	LYS426	0.000	
166	  CA	25.259	34.664	18.490	C.3	20	LYS426	0.000	
167	   C	25.078	33.512	17.518	C.2	20	LYS426	0.000	
168	   O	25.881	32.577	17.412	O.2	20	LYS426	0.000	
169	  CB	24.186	34.629	19.582	C.3	20	LYS426	0.000	
170	  CG	24.701	34.838	20.999	C.3	20	LYS426	0.000	
171	  CD	25.492	36.123	21.140	C.3	20	LYS426	0.000	
172	  CE	26.130	36.246	22.515	C.3	20	LYS426	0.000	
173	  NZ	27.570	35.871	22.447	N.4	20	LYS426	0.000	
174	   N	24.005	33.584	16.753	N.am	21	GLY427	0.000	
175	  CA	23.638	32.624	15.733	C.3	21	GLY427	0.000	
176	   C	24.815	32.495	14.767	C.2	21	GLY427	0.000	
177	   O	25.236	31.368	14.460	O.2	21	GLY427	0.000	
178	   N	27.633	30.704	16.519	N.3	22	HIS430	0.000	
179	  CA	27.169	29.359	16.758	C.3	22	HIS430	0.000	
180	   C	27.260	28.535	15.473	C.2	22	HIS430	0.000	
181	   O	27.689	27.390	15.543	O.2	22	HIS430	0.000	
182	  CB	25.761	29.274	17.342	C.3	22	HIS430	0.000	
183	  CG	25.217	27.879	17.368	C.2	22	HIS430	0.000	
184	 CD2	25.493	26.856	18.223	C.2	22	HIS430	0.000	
185	 ND1	24.339	27.379	16.436	N.2	22	HIS430	0.000	
186	 CE1	24.080	26.116	16.722	C.2	22	HIS430	0.000	
187	 NE2	24.760	25.774	17.799	N.pl3	22	HIS430	0.000	
188	   N	26.870	29.079	14.328	N.am	23	LEU431	0.000	
189	  CA	26.952	28.354	13.081	C.3	23	LEU431	0.000	
190	   C	28.424	28.119	12.726	C.2	23	LEU431	0.000	
191	   O	28.813	27.032	12.306	O.2	23	LEU431	0.000	
192	  CB	26.286	29.063	11.903	C.3	23	LEU431	0.000	
193	  CG	24.779	29.035	11.717	C.3	23	LEU431	0.000	
194	 CD1	24.421	29.550	10.322	C.3	23	LEU431	0.000	
195	 CD2	24.167	27.662	11.922	C.3	23	LEU431	0.000	
@<TRIPOS>BOND
1 1 2 1
2 2 3 1
3 2 5 1
4 3 4 2
5 5 6 1
6 6 7 1
7 7 8 1
8 9 10 1
9 10 11 1
10 10 13 1
11 11 12 2
12 11 17 1
13 13 14 1
14 14 15 1
15 14 16 1
16 17 18 1
17 18 19 1
18 18 21 1
19 19 20 2
20 21 22 1
21 21 23 1
22 24 25 1
23 25 26 1
24 25 28 1
25 26 27 2
26 26 32 1
27 28 29 1
28 29 30 1
29 29 31 1
30 32 33 1
31 33 34 1
32 33 36 1
33 34 35 2
34 34 37 1
35 37 38 1
36 38 39 1
37 38 41 1
38 39 40 2
39 41 42 1
40 42 43 2
41 42 44 1
42 45 46 1
43 46 47 1
44 46 49 1
45 47 48 2
46 47 54 1
47 49 50 1
48 50 51 1
49 51 52 2
50 51 53 1
51 54 55 1
52 55 56 1
53 55 58 1
54 56 57 2
55 58 59 1
56 59 60 1
57 59 61 1
58 62 63 1
59 63 64 1
60 63 66 1
61 64 65 2
62 64 76 1
63 66 67 1
64 67 68 2
65 67 69 1
66 68 72 1
67 69 70 2
68 69 71 1
69 70 73 1
70 71 74 2
71 70 72 1
72 73 75 2
73 74 75 1
74 76 77 1
75 77 78 1
76 77 80 1
77 78 79 2
78 80 81 1
79 81 82 1
80 82 83 1
81 84 85 1
82 85 86 1
83 85 88 1
84 86 87 2
85 86 92 1
86 88 89 1
87 89 90 1
88 89 91 1
89 92 93 1
90 93 94 1
91 93 96 1
92 94 95 2
93 96 97 1
94 97 98 1
95 98 99 1
96 100 101 1
97 101 102 1
98 101 104 1
99 102 103 2
100 104 105 1
101 105 106 1
102 105 107 1
103 108 109 1
104 109 110 1
105 109 112 1
106 110 111 2
107 112 113 1
108 113 114 1
109 114 115 1
110 115 116 1
111 116 117 2
112 116 118 1
113 119 120 1
114 120 121 1
115 120 123 1
116 121 122 2
117 123 124 1
118 124 125 2
119 124 126 1
120 125 127 1
121 126 128 2
122 127 129 2
123 128 129 1
124 130 131 1
125 131 132 1
126 131 134 1
127 132 133 2
128 134 135 1
129 134 136 1
130 135 137 1
131 138 139 1
132 139 140 1
133 139 142 1
134 140 141 2
135 140 146 1
136 142 143 1
137 142 144 1
138 143 145 1
139 146 147 1
140 147 148 1
141 147 150 1
142 148 149 2
143 150 151 1
144 151 152 2
145 151 153 1
146 152 154 1
147 153 155 2
148 154 156 2
149 155 156 1
150 157 158 1
151 158 159 1
152 158 161 1
153 159 160 2
154 161 162 1
155 162 163 1
156 162 164 1
157 165 166 1
158 166 167 1
159 166 169 1
160 167 168 2
161 167 174 1
162 169 170 1
163 170 171 1
164 171 172 1
165 172 173 1
166 174 175 1
167 175 176 1
168 176 177 2
169 178 179 1
170 179 180 1
171 179 182 1
172 180 181 2
173 180 188 1
174 182 183 1
175 183 184 2
176 183 185 1
177 184 187 1
178 185 186 2
179 186 187 1
180 188 189 1
181 189 190 1
182 189 192 1
183 190 191 2
184 192 193 1
185 193 194 1
186 193 195 1
@<TRIPOS>SUBSTRUCTURE
1	MET250	1	RESIDUE	1 A	MET
2	LEU253	9	RESIDUE	1 A	LEU
3	THR254	17	RESIDUE	1 A	THR
4	LEU256	24	RESIDUE	1 A	LEU
5	ALA257	32	RESIDUE	1 A	ALA
6	ASP258	37	RESIDUE	1 A	ASP
7	GLU260	45	RESIDUE	1 A	GLU
8	LEU261	54	RESIDUE	1 A	LEU
9	TRP290	62	RESIDUE	1 A	TRP
10	MET291	76	RESIDUE	1 A	MET
11	LEU294	84	RESIDUE	1 A	LEU
12	MET295	92	RESIDUE	1 A	MET
13	LEU298	100	RESIDUE	1 A	LEU
14	ARG301	108	RESIDUE	1 A	ARG
15	PHE311	119	RESIDUE	1 A	PHE
16	ILE328	130	RESIDUE	1 A	ILE
17	ILE331	138	RESIDUE	1 A	ILE
18	PHE332	146	RESIDUE	1 A	PHE
19	LEU335	157	RESIDUE	1 A	LEU
20	LYS426	165	RESIDUE	1 A	LYS
21	GLY427	174	RESIDUE	1 A	GLY
22	HIS430	178	RESIDUE	1 A	HIS
23	LEU431	188	RESIDUE	1 A	LEU
