# created with PyMOL 2.5.0
@<TRIPOS>MOLECULE
1xp9
215 202 26              
SMALL
USER_CHARGES
@<TRIPOS>ATOM
1	   N	35.740	-7.882	31.212	N.3	1	MET343	0.000	
2	  CA	35.655	-7.232	29.885	C.3	1	MET343	0.000	
3	   C	35.054	-8.134	28.815	C.2	1	MET343	0.000	
4	   O	34.383	-7.627	27.902	O.2	1	MET343	0.000	
5	  CB	37.014	-6.718	29.408	C.3	1	MET343	0.000	
6	  CG	36.937	-5.944	28.098	C.3	1	MET343	0.000	
7	  SD	36.196	-4.309	28.253	S.3	1	MET343	0.000	
8	  CE	36.322	-4.009	30.001	C.3	1	MET343	0.000	
9	   N	31.274	-7.798	29.259	N.3	2	LEU346	0.000	
10	  CA	30.792	-6.522	28.741	C.3	2	LEU346	0.000	
11	   C	30.926	-6.469	27.227	C.2	2	LEU346	0.000	
12	   O	30.031	-6.002	26.510	O.2	2	LEU346	0.000	
13	  CB	31.554	-5.373	29.425	C.3	2	LEU346	0.000	
14	  CG	31.318	-5.220	30.933	C.3	2	LEU346	0.000	
15	 CD1	32.219	-4.157	31.529	C.3	2	LEU346	0.000	
16	 CD2	29.852	-4.900	31.195	C.3	2	LEU346	0.000	
17	   N	32.050	-6.948	26.686	N.am	3	THR347	0.000	
18	  CA	32.208	-6.926	25.236	C.3	3	THR347	0.000	
19	   C	31.193	-7.798	24.524	C.2	3	THR347	0.000	
20	   O	30.676	-7.402	23.487	O.2	3	THR347	0.000	
21	  CB	33.624	-7.394	24.861	C.3	3	THR347	0.000	
22	 CG2	33.875	-7.279	23.363	C.3	3	THR347	0.000	
23	 OG1	34.488	-6.476	25.545	O.3	3	THR347	0.000	
24	   N	28.177	-8.638	25.580	N.3	4	LEU349	0.000	
25	  CA	26.911	-7.933	25.685	C.3	4	LEU349	0.000	
26	   C	26.795	-6.831	24.632	C.2	4	LEU349	0.000	
27	   O	25.831	-6.767	23.865	O.2	4	LEU349	0.000	
28	  CB	26.724	-7.318	27.092	C.3	4	LEU349	0.000	
29	  CG	25.376	-6.570	27.213	C.3	4	LEU349	0.000	
30	 CD1	24.235	-7.544	26.976	C.3	4	LEU349	0.000	
31	 CD2	25.210	-5.857	28.545	C.3	4	LEU349	0.000	
32	   N	27.792	-5.947	24.593	N.am	5	ALA350	0.000	
33	  CA	27.786	-4.825	23.667	C.3	5	ALA350	0.000	
34	   C	27.730	-5.276	22.211	C.2	5	ALA350	0.000	
35	   O	27.056	-4.621	21.400	O.2	5	ALA350	0.000	
36	  CB	29.007	-3.946	23.882	C.3	5	ALA350	0.000	
37	   N	28.418	-6.374	21.888	N.am	6	ASP351	0.000	
38	  CA	28.384	-6.819	20.473	C.3	6	ASP351	0.000	
39	   C	26.988	-7.312	20.120	C.2	6	ASP351	0.000	
40	   O	26.479	-7.184	19.014	O.2	6	ASP351	0.000	
41	  CB	29.414	-7.898	20.203	C.3	6	ASP351	0.000	
42	  CG	30.854	-7.443	20.305	C.2	6	ASP351	0.000	
43	 OD1	31.162	-6.243	20.206	O.co2	6	ASP351	0.000	
44	 OD2	31.750	-8.294	20.484	O.co2	6	ASP351	0.000	
45	   N	24.186	-6.213	21.449	N.3	7	GLU353	0.000	
46	  CA	23.303	-5.045	21.350	C.3	7	GLU353	0.000	
47	   C	23.381	-4.346	20.002	C.2	7	GLU353	0.000	
48	   O	22.415	-3.795	19.456	O.2	7	GLU353	0.000	
49	  CB	23.649	-4.049	22.459	C.3	7	GLU353	0.000	
50	  CG	23.075	-4.499	23.829	C.3	7	GLU353	0.000	
51	  CD	23.232	-3.312	24.753	C.2	7	GLU353	0.000	
52	 OE1	22.451	-2.353	24.670	O.co2	7	GLU353	0.000	
53	 OE2	24.177	-3.323	25.542	O.co2	7	GLU353	0.000	
54	   N	24.587	-4.369	19.450	N.am	8	LEU354	0.000	
55	  CA	24.853	-3.683	18.184	C.3	8	LEU354	0.000	
56	   C	23.974	-4.219	17.073	C.2	8	LEU354	0.000	
57	   O	23.512	-3.504	16.190	O.2	8	LEU354	0.000	
58	  CB	26.340	-3.812	17.834	C.3	8	LEU354	0.000	
59	  CG	26.835	-3.002	16.640	C.3	8	LEU354	0.000	
60	 CD1	26.709	-1.511	16.921	C.3	8	LEU354	0.000	
61	 CD2	28.274	-3.399	16.309	C.3	8	LEU354	0.000	
62	   N	27.692	4.760	17.611	N.3	9	TRP383	0.000	
63	  CA	27.255	3.511	18.245	C.3	9	TRP383	0.000	
64	   C	27.596	3.500	19.734	C.2	9	TRP383	0.000	
65	   O	26.813	2.985	20.523	O.2	9	TRP383	0.000	
66	  CB	27.826	2.271	17.528	C.3	9	TRP383	0.000	
67	  CG	29.316	2.197	17.746	C.2	9	TRP383	0.000	
68	 CD1	30.268	2.811	16.985	C.2	9	TRP383	0.000	
69	 CD2	30.013	1.499	18.763	C.2	9	TRP383	0.000	
70	 CE2	31.382	1.717	18.576	C.2	9	TRP383	0.000	
71	 CE3	29.565	0.692	19.831	C.2	9	TRP383	0.000	
72	 NE1	31.524	2.528	17.478	N.pl3	9	TRP383	0.000	
73	 CZ2	32.351	1.170	19.411	C.2	9	TRP383	0.000	
74	 CZ3	30.534	0.159	20.641	C.2	9	TRP383	0.000	
75	 CH2	31.904	0.386	20.446	C.2	9	TRP383	0.000	
76	   N	28.746	4.050	20.137	N.am	10	LEU384	0.000	
77	  CA	29.068	3.934	21.573	C.3	10	LEU384	0.000	
78	   C	28.276	4.937	22.401	C.2	10	LEU384	0.000	
79	   O	27.798	4.632	23.496	O.2	10	LEU384	0.000	
80	  CB	30.578	4.054	21.816	C.3	10	LEU384	0.000	
81	  CG	31.048	3.870	23.267	C.3	10	LEU384	0.000	
82	 CD1	30.613	2.540	23.851	C.3	10	LEU384	0.000	
83	 CD2	32.560	4.008	23.358	C.3	10	LEU384	0.000	
84	   N	24.926	3.107	22.795	N.3	11	LEU387	0.000	
85	  CA	25.023	2.129	23.868	C.3	11	LEU387	0.000	
86	   C	25.068	2.817	25.233	C.2	11	LEU387	0.000	
87	   O	24.468	2.340	26.206	O.2	11	LEU387	0.000	
88	  CB	26.280	1.264	23.747	C.3	11	LEU387	0.000	
89	  CG	26.397	0.212	22.660	C.3	11	LEU387	0.000	
90	 CD1	27.692	-0.598	22.801	C.3	11	LEU387	0.000	
91	 CD2	25.204	-0.732	22.682	C.3	11	LEU387	0.000	
92	   N	25.785	3.933	25.368	N.am	12	MET388	0.000	
93	  CA	25.983	4.474	26.711	C.3	12	MET388	0.000	
94	   C	24.720	5.170	27.205	C.2	12	MET388	0.000	
95	   O	24.391	5.032	28.379	O.2	12	MET388	0.000	
96	  CB	27.155	5.454	26.766	C.3	12	MET388	0.000	
97	  CG	28.514	4.758	26.728	C.3	12	MET388	0.000	
98	  SD	29.848	5.955	26.642	S.3	12	MET388	0.000	
99	  CE	31.250	4.947	27.136	C.3	12	MET388	0.000	
100	   N	22.492	2.525	28.498	N.3	13	LEU391	0.000	
101	  CA	22.955	2.053	29.805	C.3	13	LEU391	0.000	
102	   C	22.641	3.001	30.963	C.2	13	LEU391	0.000	
103	   O	22.241	2.603	32.064	O.2	13	LEU391	0.000	
104	  CB	24.472	1.829	29.722	C.3	13	LEU391	0.000	
105	  CG	25.162	1.524	31.054	C.3	13	LEU391	0.000	
106	 CD1	24.648	0.197	31.584	C.3	13	LEU391	0.000	
107	 CD2	26.669	1.530	30.859	C.3	13	LEU391	0.000	
108	   N	18.791	2.768	31.656	N.3	14	ARG394	0.000	
109	  CA	18.280	1.651	32.464	C.3	14	ARG394	0.000	
110	   C	18.931	1.645	33.848	C.2	14	ARG394	0.000	
111	   O	18.462	0.939	34.747	O.2	14	ARG394	0.000	
112	  CB	18.418	0.325	31.741	C.3	14	ARG394	0.000	
113	  CG	19.735	-0.092	31.170	C.3	14	ARG394	0.000	
114	  CD	19.677	-1.449	30.462	C.3	14	ARG394	0.000	
115	  NE	21.027	-1.808	30.048	N.pl3	14	ARG394	0.000	
116	  CZ	21.662	-1.449	28.942	C.cat	14	ARG394	0.000	
117	 NH1	21.148	-0.681	27.982	N.pl3	14	ARG394	0.000	
118	 NH2	22.908	-1.883	28.752	N.pl3	14	ARG394	0.000	
119	   N	24.107	-3.028	33.410	N.3	15	PHE404	0.000	
120	  CA	24.550	-3.388	32.064	C.3	15	PHE404	0.000	
121	   C	23.554	-4.354	31.432	C.2	15	PHE404	0.000	
122	   O	23.310	-4.237	30.244	O.2	15	PHE404	0.000	
123	  CB	25.944	-4.004	32.119	C.3	15	PHE404	0.000	
124	  CG	27.028	-2.961	32.329	C.2	15	PHE404	0.000	
125	 CD1	27.523	-2.271	31.242	C.2	15	PHE404	0.000	
126	 CD2	27.523	-2.701	33.594	C.2	15	PHE404	0.000	
127	 CE1	28.509	-1.315	31.416	C.2	15	PHE404	0.000	
128	 CE2	28.508	-1.745	33.782	C.2	15	PHE404	0.000	
129	  CZ	29.000	-1.054	32.690	C.2	15	PHE404	0.000	
130	   N	39.082	1.540	33.953	N.3	16	MET421	0.000	
131	  CA	37.643	1.486	33.669	C.3	16	MET421	0.000	
132	   C	36.825	2.240	34.703	C.2	16	MET421	0.000	
133	   O	35.746	2.742	34.369	O.2	16	MET421	0.000	
134	  CB	37.148	0.038	33.528	C.3	16	MET421	0.000	
135	  CG	35.737	-0.097	32.971	C.3	16	MET421	0.000	
136	  SD	35.338	-1.745	32.353	S.3	16	MET421	0.000	
137	  CE	35.212	-2.672	33.892	C.3	16	MET421	0.000	
138	   N	35.576	5.671	33.534	N.3	17	ILE424	0.000	
139	  CA	34.415	5.568	32.665	C.3	17	ILE424	0.000	
140	   C	33.169	5.279	33.509	C.2	17	ILE424	0.000	
141	   O	32.150	5.952	33.327	O.2	17	ILE424	0.000	
142	  CB	34.564	4.487	31.573	C.3	17	ILE424	0.000	
143	 CG1	35.934	4.404	30.903	C.3	17	ILE424	0.000	
144	 CG2	33.493	4.632	30.495	C.3	17	ILE424	0.000	
145	 CD1	36.283	5.531	29.965	C.3	17	ILE424	0.000	
146	   N	29.684	7.558	33.683	N.3	18	LEU428	0.000	
147	  CA	28.370	6.961	33.423	C.3	18	LEU428	0.000	
148	   C	27.448	7.124	34.623	C.2	18	LEU428	0.000	
149	   O	26.269	7.481	34.529	O.2	18	LEU428	0.000	
150	  CB	28.535	5.476	33.051	C.3	18	LEU428	0.000	
151	  CG	29.184	5.201	31.703	C.3	18	LEU428	0.000	
152	 CD1	29.701	3.767	31.617	C.3	18	LEU428	0.000	
153	 CD2	28.196	5.501	30.561	C.3	18	LEU428	0.000	
154	   N	36.162	9.175	25.376	N.3	19	LYS520	0.000	
155	  CA	37.048	8.584	26.380	C.3	19	LYS520	0.000	
156	   C	36.975	7.064	26.347	C.2	19	LYS520	0.000	
157	   O	37.966	6.335	26.493	O.2	19	LYS520	0.000	
158	  CB	36.685	9.118	27.765	C.3	19	LYS520	0.000	
159	  CG	36.970	10.586	28.013	C.3	19	LYS520	0.000	
160	  CD	38.397	10.953	27.646	C.3	19	LYS520	0.000	
161	  CE	39.380	10.552	28.732	C.3	19	LYS520	0.000	
162	  NZ	40.550	11.469	28.851	N.4	19	LYS520	0.000	
163	   N	35.773	6.527	26.137	N.am	20	GLY521	0.000	
164	  CA	35.606	5.079	26.135	C.3	20	GLY521	0.000	
165	   C	36.282	4.483	24.910	C.2	20	GLY521	0.000	
166	   O	36.836	3.391	24.963	O.2	20	GLY521	0.000	
167	   N	39.802	4.363	25.738	N.3	21	HIS524	0.000	
168	  CA	40.043	3.273	26.672	C.3	21	HIS524	0.000	
169	   C	39.909	1.933	25.955	C.2	21	HIS524	0.000	
170	   O	40.772	1.068	26.126	O.2	21	HIS524	0.000	
171	  CB	39.108	3.344	27.878	C.3	21	HIS524	0.000	
172	  CG	39.354	2.288	28.926	C.2	21	HIS524	0.000	
173	 CD2	40.362	2.090	29.816	C.2	21	HIS524	0.000	
174	 ND1	38.478	1.252	29.143	N.2	21	HIS524	0.000	
175	 CE1	38.914	0.458	30.111	C.2	21	HIS524	0.000	
176	 NE2	40.063	0.949	30.539	N.pl3	21	HIS524	0.000	
177	   N	38.868	1.731	25.147	N.am	22	LEU525	0.000	
178	  CA	38.734	0.435	24.480	C.3	22	LEU525	0.000	
179	   C	39.923	0.131	23.581	C.2	22	LEU525	0.000	
180	   O	40.298	-1.031	23.413	O.2	22	LEU525	0.000	
181	  CB	37.463	0.350	23.639	C.3	22	LEU525	0.000	
182	  CG	36.154	0.444	24.419	C.3	22	LEU525	0.000	
183	 CD1	34.986	0.375	23.454	C.3	22	LEU525	0.000	
184	 CD2	36.063	-0.655	25.470	C.3	22	LEU525	0.000	
185	   N	40.320	-6.527	23.300	N.3	23	CYS530	0.000	
186	  CA	38.994	-6.630	22.723	C.3	23	CYS530	0.000	
187	   C	39.036	-6.996	21.243	C.2	23	CYS530	0.000	
188	   O	40.098	-7.346	20.727	O.2	23	CYS530	0.000	
189	  CB	38.257	-5.295	22.905	C.3	23	CYS530	0.000	
190	  SG	36.720	-5.444	23.840	S.3	23	CYS530	0.000	
191	   N	37.895	-6.909	20.559	N.am	24	LYS531	0.000	
192	  CA	37.869	-7.193	19.127	C.3	24	LYS531	0.000	
193	   C	38.061	-5.913	18.308	C.2	24	LYS531	0.000	
194	   O	37.415	-4.899	18.573	O.2	24	LYS531	0.000	
195	  CB	36.565	-7.878	18.714	C.3	24	LYS531	0.000	
196	  CG	36.237	-7.762	17.233	C.3	24	LYS531	0.000	
197	  CD	35.158	-6.723	16.971	C.3	24	LYS531	0.000	
198	  CE	34.094	-7.232	16.011	C.3	24	LYS531	0.000	
199	  NZ	32.746	-7.295	16.657	N.4	24	LYS531	0.000	
200	   N	35.121	-1.664	11.577	N.3	25	LEU536	0.000	
201	  CA	33.759	-1.452	12.032	C.3	25	LEU536	0.000	
202	   C	32.843	-1.052	10.876	C.2	25	LEU536	0.000	
203	   O	31.696	-1.506	10.824	O.2	25	LEU536	0.000	
204	  CB	33.705	-0.395	13.146	C.3	25	LEU536	0.000	
205	  CG	32.340	-0.421	13.846	C.3	25	LEU536	0.000	
206	 CD1	32.144	-1.810	14.445	C.3	25	LEU536	0.000	
207	 CD2	32.196	0.670	14.889	C.3	25	LEU536	0.000	
208	   N	31.626	-4.161	9.092	N.3	26	LEU539	0.000	
209	  CA	30.675	-5.021	9.801	C.3	26	LEU539	0.000	
210	   C	29.288	-4.374	9.853	C.2	26	LEU539	0.000	
211	   O	28.278	-5.069	9.713	O.2	26	LEU539	0.000	
212	  CB	31.183	-5.350	11.207	C.3	26	LEU539	0.000	
213	  CG	30.171	-6.053	12.117	C.3	26	LEU539	0.000	
214	 CD1	30.034	-7.511	11.715	C.3	26	LEU539	0.000	
215	 CD2	30.531	-5.930	13.604	C.3	26	LEU539	0.000	
@<TRIPOS>BOND
1 1 2 1
2 2 3 1
3 2 5 1
4 3 4 2
5 5 6 1
6 6 7 1
7 7 8 1
8 9 10 1
9 10 11 1
10 10 13 1
11 11 12 2
12 11 17 1
13 13 14 1
14 14 15 1
15 14 16 1
16 17 18 1
17 18 19 1
18 18 21 1
19 19 20 2
20 21 22 1
21 21 23 1
22 24 25 1
23 25 26 1
24 25 28 1
25 26 27 2
26 26 32 1
27 28 29 1
28 29 30 1
29 29 31 1
30 32 33 1
31 33 34 1
32 33 36 1
33 34 35 2
34 34 37 1
35 37 38 1
36 38 39 1
37 38 41 1
38 39 40 2
39 41 42 1
40 42 43 2
41 42 44 1
42 45 46 1
43 46 47 1
44 46 49 1
45 47 48 2
46 47 54 1
47 49 50 1
48 50 51 1
49 51 52 2
50 51 53 1
51 54 55 1
52 55 56 1
53 55 58 1
54 56 57 2
55 58 59 1
56 59 60 1
57 59 61 1
58 62 63 1
59 63 64 1
60 63 66 1
61 64 65 2
62 64 76 1
63 66 67 1
64 67 68 2
65 67 69 1
66 68 72 1
67 69 70 2
68 69 71 1
69 70 73 1
70 71 74 2
71 70 72 1
72 73 75 2
73 74 75 1
74 76 77 1
75 77 78 1
76 77 80 1
77 78 79 2
78 80 81 1
79 81 82 1
80 81 83 1
81 84 85 1
82 85 86 1
83 85 88 1
84 86 87 2
85 86 92 1
86 88 89 1
87 89 90 1
88 89 91 1
89 92 93 1
90 93 94 1
91 93 96 1
92 94 95 2
93 96 97 1
94 97 98 1
95 98 99 1
96 100 101 1
97 101 102 1
98 101 104 1
99 102 103 2
100 104 105 1
101 105 106 1
102 105 107 1
103 108 109 1
104 109 110 1
105 109 112 1
106 110 111 2
107 112 113 1
108 113 114 1
109 114 115 1
110 115 116 1
111 116 117 2
112 116 118 1
113 119 120 1
114 120 121 1
115 120 123 1
116 121 122 2
117 123 124 1
118 124 125 2
119 124 126 1
120 125 127 1
121 126 128 2
122 127 129 2
123 128 129 1
124 130 131 1
125 131 132 1
126 131 134 1
127 132 133 2
128 134 135 1
129 135 136 1
130 136 137 1
131 138 139 1
132 139 140 1
133 139 142 1
134 140 141 2
135 142 143 1
136 142 144 1
137 143 145 1
138 146 147 1
139 147 148 1
140 147 150 1
141 148 149 2
142 150 151 1
143 151 152 1
144 151 153 1
145 154 155 1
146 155 156 1
147 155 158 1
148 156 157 2
149 156 163 1
150 158 159 1
151 159 160 1
152 160 161 1
153 161 162 1
154 163 164 1
155 164 165 1
156 165 166 2
157 167 168 1
158 168 169 1
159 168 171 1
160 169 170 2
161 169 177 1
162 171 172 1
163 172 173 2
164 172 174 1
165 173 176 1
166 174 175 2
167 175 176 1
168 177 178 1
169 178 179 1
170 178 181 1
171 179 180 2
172 181 182 1
173 182 183 1
174 182 184 1
175 185 186 1
176 186 187 1
177 186 189 1
178 187 188 2
179 187 191 1
180 189 190 1
181 191 192 1
182 192 193 1
183 192 195 1
184 193 194 2
185 195 196 1
186 196 197 1
187 197 198 1
188 198 199 1
189 200 201 1
190 201 202 1
191 201 204 1
192 202 203 2
193 204 205 1
194 205 206 1
195 205 207 1
196 208 209 1
197 209 210 1
198 209 212 1
199 210 211 2
200 212 213 1
201 213 214 1
202 213 215 1
@<TRIPOS>SUBSTRUCTURE
1	MET343	1	RESIDUE	1 A	MET
2	LEU346	9	RESIDUE	1 A	LEU
3	THR347	17	RESIDUE	1 A	THR
4	LEU349	24	RESIDUE	1 A	LEU
5	ALA350	32	RESIDUE	1 A	ALA
6	ASP351	37	RESIDUE	1 A	ASP
7	GLU353	45	RESIDUE	1 A	GLU
8	LEU354	54	RESIDUE	1 A	LEU
9	TRP383	62	RESIDUE	1 A	TRP
10	LEU384	76	RESIDUE	1 A	LEU
11	LEU387	84	RESIDUE	1 A	LEU
12	MET388	92	RESIDUE	1 A	MET
13	LEU391	100	RESIDUE	1 A	LEU
14	ARG394	108	RESIDUE	1 A	ARG
15	PHE404	119	RESIDUE	1 A	PHE
16	MET421	130	RESIDUE	1 A	MET
17	ILE424	138	RESIDUE	1 A	ILE
18	LEU428	146	RESIDUE	1 A	LEU
19	LYS520	154	RESIDUE	1 A	LYS
20	GLY521	163	RESIDUE	1 A	GLY
21	HIS524	167	RESIDUE	1 A	HIS
22	LEU525	177	RESIDUE	1 A	LEU
23	CYS530	185	RESIDUE	1 A	CYS
24	LYS531	191	RESIDUE	1 A	LYS
25	LEU536	200	RESIDUE	1 A	LEU
26	LEU539	208	RESIDUE	1 A	LEU
