# created with PyMOL 2.5.0
@<TRIPOS>MOLECULE
1xqc
211 199 26              
SMALL
USER_CHARGES
@<TRIPOS>ATOM
1	   N	5.966	-0.446	39.770	N.3	1	MET343	0.000	
2	  CA	6.579	0.738	39.168	C.3	1	MET343	0.000	
3	   C	6.942	1.722	40.260	C.2	1	MET343	0.000	
4	   O	8.020	2.306	40.240	O.2	1	MET343	0.000	
5	  CB	5.671	1.431	38.138	C.3	1	MET343	0.000	
6	  CG	6.421	2.434	37.252	C.3	1	MET343	0.000	
7	  SD	7.978	1.756	36.514	S.3	1	MET343	0.000	
8	  CE	8.896	3.197	36.243	C.3	1	MET343	0.000	
9	   N	10.146	0.725	41.987	N.3	2	LEU346	0.000	
10	  CA	11.292	0.824	41.082	C.3	2	LEU346	0.000	
11	   C	11.783	2.253	40.888	C.2	2	LEU346	0.000	
12	   O	12.996	2.515	40.856	O.2	2	LEU346	0.000	
13	  CB	10.918	0.210	39.737	C.3	2	LEU346	0.000	
14	  CG	10.693	-1.298	39.691	C.3	2	LEU346	0.000	
15	 CD1	10.354	-1.665	38.295	C.3	2	LEU346	0.000	
16	 CD2	11.914	-2.055	40.127	C.3	2	LEU346	0.000	
17	   N	10.820	3.163	40.748	N.am	3	THR347	0.000	
18	  CA	11.055	4.608	40.716	C.3	3	THR347	0.000	
19	   C	11.789	5.057	41.970	C.2	3	THR347	0.000	
20	   O	12.768	5.820	41.903	O.2	3	THR347	0.000	
21	  CB	9.667	5.353	40.553	C.3	3	THR347	0.000	
22	 CG2	9.792	6.843	40.543	C.3	3	THR347	0.000	
23	 OG1	9.115	5.076	39.260	O.3	3	THR347	0.000	
24	   N	13.435	3.276	44.125	N.3	4	LEU349	0.000	
25	  CA	14.788	2.664	44.184	C.3	4	LEU349	0.000	
26	   C	15.795	3.398	43.270	C.2	4	LEU349	0.000	
27	   O	16.897	3.752	43.693	O.2	4	LEU349	0.000	
28	  CB	14.719	1.179	43.841	C.3	4	LEU349	0.000	
29	  CG	16.081	0.493	43.595	C.3	4	LEU349	0.000	
30	 CD1	16.812	0.461	44.906	C.3	4	LEU349	0.000	
31	 CD2	15.899	-0.912	43.028	C.3	4	LEU349	0.000	
32	   N	15.420	3.618	42.026	N.am	5	ALA350	0.000	
33	  CA	16.317	4.235	41.058	C.3	5	ALA350	0.000	
34	   C	16.619	5.707	41.435	C.2	5	ALA350	0.000	
35	   O	17.771	6.211	41.270	O.2	5	ALA350	0.000	
36	  CB	15.701	4.121	39.622	C.3	5	ALA350	0.000	
37	   N	15.584	6.399	41.960	N.am	6	ASP351	0.000	
38	  CA	15.755	7.765	42.453	C.3	6	ASP351	0.000	
39	   C	16.780	7.828	43.599	C.2	6	ASP351	0.000	
40	   O	17.581	8.767	43.669	O.2	6	ASP351	0.000	
41	  CB	14.427	8.384	42.892	C.3	6	ASP351	0.000	
42	  CG	13.520	8.806	41.694	C.2	6	ASP351	0.000	
43	 OD1	13.944	8.829	40.510	O.co2	6	ASP351	0.000	
44	 OD2	12.330	9.158	41.872	O.co2	6	ASP351	0.000	
45	   N	19.204	5.478	44.116	N.3	7	GLU353	0.000	
46	  CA	20.462	5.102	43.427	C.3	7	GLU353	0.000	
47	   C	21.152	6.287	42.732	C.2	7	GLU353	0.000	
48	   O	22.378	6.369	42.657	O.2	7	GLU353	0.000	
49	  CB	20.181	3.995	42.413	C.3	7	GLU353	0.000	
50	  CG	20.007	2.603	43.034	C.3	7	GLU353	0.000	
51	  CD	19.749	1.532	41.985	C.2	7	GLU353	0.000	
52	 OE1	20.668	0.767	41.648	O.co2	7	GLU353	0.000	
53	 OE2	18.625	1.474	41.446	O.co2	7	GLU353	0.000	
54	   N	20.346	7.213	42.226	N.am	8	LEU354	0.000	
55	  CA	20.844	8.342	41.472	C.3	8	LEU354	0.000	
56	   C	21.734	9.247	42.327	C.2	8	LEU354	0.000	
57	   O	22.675	9.781	41.842	O.2	8	LEU354	0.000	
58	  CB	19.684	9.143	40.829	C.3	8	LEU354	0.000	
59	  CG	20.111	10.190	39.816	C.3	8	LEU354	0.000	
60	 CD1	20.853	9.636	38.664	C.3	8	LEU354	0.000	
61	 CD2	18.875	10.942	39.345	C.3	8	LEU354	0.000	
62	   N	22.960	8.217	32.726	N.3	9	TRP383	0.000	
63	  CA	22.528	7.655	33.996	C.3	9	TRP383	0.000	
64	   C	21.678	6.358	33.836	C.2	9	TRP383	0.000	
65	   O	21.725	5.448	34.672	O.2	9	TRP383	0.000	
66	  CB	21.767	8.679	34.852	C.3	9	TRP383	0.000	
67	  CG	20.427	9.030	34.235	C.2	9	TRP383	0.000	
68	 CD1	20.178	9.983	33.306	C.2	9	TRP383	0.000	
69	 CD2	19.156	8.430	34.534	C.2	9	TRP383	0.000	
70	 CE2	18.188	9.062	33.726	C.2	9	TRP383	0.000	
71	 CE3	18.743	7.422	35.391	C.2	9	TRP383	0.000	
72	 NE1	18.843	9.994	32.970	N.pl3	9	TRP383	0.000	
73	 CZ2	16.836	8.712	33.748	C.2	9	TRP383	0.000	
74	 CZ3	17.397	7.075	35.403	C.2	9	TRP383	0.000	
75	 CH2	16.464	7.730	34.607	C.2	9	TRP383	0.000	
76	   N	20.860	6.277	32.808	N.am	10	LEU384	0.000	
77	  CA	19.954	5.133	32.772	C.3	10	LEU384	0.000	
78	   C	20.708	3.887	32.287	C.2	10	LEU384	0.000	
79	   O	20.394	2.817	32.723	O.2	10	LEU384	0.000	
80	  CB	18.731	5.417	31.938	C.3	10	LEU384	0.000	
81	  CG	17.847	4.174	31.751	C.3	10	LEU384	0.000	
82	 CD1	17.304	3.695	33.080	C.3	10	LEU384	0.000	
83	 CD2	16.728	4.504	30.815	C.3	10	LEU384	0.000	
84	   N	22.354	2.591	35.401	N.3	11	LEU387	0.000	
85	  CA	21.471	1.824	36.269	C.3	11	LEU387	0.000	
86	   C	21.213	0.437	35.683	C.2	11	LEU387	0.000	
87	   O	21.032	-0.531	36.426	O.2	11	LEU387	0.000	
88	  CB	20.144	2.529	36.500	C.3	11	LEU387	0.000	
89	  CG	20.028	3.766	37.356	C.3	11	LEU387	0.000	
90	 CD1	18.520	4.232	37.327	C.3	11	LEU387	0.000	
91	 CD2	20.460	3.454	38.740	C.3	11	LEU387	0.000	
92	   N	21.190	0.323	34.357	N.am	12	MET388	0.000	
93	  CA	20.889	-0.925	33.725	C.3	12	MET388	0.000	
94	   C	22.104	-1.838	33.819	C.2	12	MET388	0.000	
95	   O	21.977	-3.007	34.119	O.2	12	MET388	0.000	
96	  CB	20.523	-0.692	32.259	C.3	12	MET388	0.000	
97	  CG	19.161	-0.164	32.040	C.3	12	MET388	0.000	
98	  SD	18.746	0.259	30.396	S.3	12	MET388	0.000	
99	  CE	16.838	0.282	30.591	C.3	12	MET388	0.000	
100	   N	22.270	-3.180	37.177	N.3	13	LEU391	0.000	
101	  CA	21.187	-4.131	37.400	C.3	13	LEU391	0.000	
102	   C	21.583	-5.483	36.848	C.2	13	LEU391	0.000	
103	   O	21.482	-6.508	37.477	O.2	13	LEU391	0.000	
104	  CB	19.931	-3.644	36.667	C.3	13	LEU391	0.000	
105	  CG	18.844	-4.687	36.562	C.3	13	LEU391	0.000	
106	 CD1	18.584	-5.193	37.887	C.3	13	LEU391	0.000	
107	 CD2	17.539	-3.987	35.928	C.3	13	LEU391	0.000	
108	   N	24.413	-7.349	38.957	N.3	14	ARG394	0.000	
109	  CA	23.964	-8.066	40.149	C.3	14	ARG394	0.000	
110	   C	22.915	-9.128	39.823	C.2	14	ARG394	0.000	
111	   O	22.475	-9.881	40.695	O.2	14	ARG394	0.000	
112	  CB	23.507	-7.094	41.254	C.3	14	ARG394	0.000	
113	  CG	22.103	-6.486	41.091	C.3	14	ARG394	0.000	
114	  CD	21.877	-5.308	42.034	C.3	14	ARG394	0.000	
115	  NE	20.796	-4.413	41.579	N.pl3	14	ARG394	0.000	
116	  CZ	20.949	-3.195	41.038	C.cat	14	ARG394	0.000	
117	 NH1	22.147	-2.627	40.823	N.pl3	14	ARG394	0.000	
118	 NH2	19.867	-2.514	40.708	N.pl3	14	ARG394	0.000	
119	   N	16.603	-6.274	41.038	N.3	15	PHE404	0.000	
120	  CA	16.535	-4.819	41.182	C.3	15	PHE404	0.000	
121	   C	17.089	-4.488	42.530	C.2	15	PHE404	0.000	
122	   O	17.922	-3.607	42.645	O.2	15	PHE404	0.000	
123	  CB	15.113	-4.231	41.030	C.3	15	PHE404	0.000	
124	  CG	14.650	-4.205	39.640	C.2	15	PHE404	0.000	
125	 CD1	15.023	-3.184	38.799	C.2	15	PHE404	0.000	
126	 CD2	13.901	-5.250	39.126	C.2	15	PHE404	0.000	
127	 CE1	14.633	-3.191	37.471	C.2	15	PHE404	0.000	
128	 CE2	13.543	-5.250	37.812	C.2	15	PHE404	0.000	
129	  CZ	13.912	-4.219	36.998	C.2	15	PHE404	0.000	
130	   N	4.691	-4.745	34.343	N.3	16	VAL418	0.000	
131	  CA	5.310	-3.423	34.474	C.3	16	VAL418	0.000	
132	   C	5.435	-2.755	33.102	C.2	16	VAL418	0.000	
133	   O	6.139	-3.243	32.221	O.2	16	VAL418	0.000	
134	  CB	6.700	-3.497	35.121	C.3	16	VAL418	0.000	
135	 CG1	7.239	-2.087	35.422	C.3	16	VAL418	0.000	
136	 CG2	6.667	-4.339	36.381	C.3	16	VAL418	0.000	
137	   N	4.731	-1.639	32.932	N.am	17	GLU419	0.000	
138	  CA	4.814	-0.852	31.707	C.3	17	GLU419	0.000	
139	   C	6.233	-0.303	31.495	C.2	17	GLU419	0.000	
140	   O	6.908	0.129	32.451	O.2	17	GLU419	0.000	
141	  CB	3.819	0.316	31.758	C.3	17	GLU419	0.000	
142	  CG	2.510	0.073	31.036	C.3	17	GLU419	0.000	
143	  CD	1.805	1.384	30.707	C.2	17	GLU419	0.000	
144	 OE1	2.299	2.120	29.810	O.co2	17	GLU419	0.000	
145	 OE2	0.778	1.691	31.366	O.co2	17	GLU419	0.000	
146	   N	6.681	-0.336	30.241	N.am	18	GLY420	0.000	
147	  CA	8.025	0.078	29.886	C.3	18	GLY420	0.000	
148	   C	9.033	-1.042	30.043	C.2	18	GLY420	0.000	
149	   O	10.005	-1.112	29.307	O.2	18	GLY420	0.000	
150	   N	8.786	-1.925	31.005	N.am	19	MET421	0.000	
151	  CA	9.609	-3.103	31.227	C.3	19	MET421	0.000	
152	   C	9.422	-4.163	30.154	C.2	19	MET421	0.000	
153	   O	10.310	-4.956	29.938	O.2	19	MET421	0.000	
154	  CB	9.300	-3.698	32.609	C.3	19	MET421	0.000	
155	  CG	10.360	-4.661	33.133	C.3	19	MET421	0.000	
156	  SD	11.798	-3.812	33.747	S.3	19	MET421	0.000	
157	  CE	13.047	-4.461	32.835	C.3	19	MET421	0.000	
158	   N	12.018	-4.298	27.401	N.3	20	ILE424	0.000	
159	  CA	13.405	-4.413	27.858	C.3	20	ILE424	0.000	
160	   C	13.716	-5.552	28.768	C.2	20	ILE424	0.000	
161	   O	14.880	-5.854	28.929	O.2	20	ILE424	0.000	
162	  CB	13.922	-3.090	28.472	C.3	20	ILE424	0.000	
163	 CG1	13.025	-2.623	29.627	C.3	20	ILE424	0.000	
164	 CG2	14.118	-2.105	27.345	C.3	20	ILE424	0.000	
165	 CD1	13.230	-1.180	30.055	C.3	20	ILE424	0.000	
166	   N	17.394	-7.212	29.033	N.3	21	LEU428	0.000	
167	  CA	18.165	-7.173	30.254	C.3	21	LEU428	0.000	
168	   C	18.661	-8.566	30.637	C.2	21	LEU428	0.000	
169	   O	19.837	-8.720	30.991	O.2	21	LEU428	0.000	
170	  CB	17.424	-6.482	31.404	C.3	21	LEU428	0.000	
171	  CG	17.370	-4.959	31.255	C.3	21	LEU428	0.000	
172	 CD1	16.147	-4.437	31.913	C.3	21	LEU428	0.000	
173	 CD2	18.658	-4.193	31.810	C.3	21	LEU428	0.000	
174	   N	13.892	2.199	27.186	N.3	22	GLY521	0.000	
175	  CA	13.418	2.504	28.520	C.3	22	GLY521	0.000	
176	   C	13.103	3.974	28.724	C.2	22	GLY521	0.000	
177	   O	12.140	4.335	29.390	O.2	22	GLY521	0.000	
178	   N	9.821	5.305	27.545	N.3	23	HIS524	0.000	
179	  CA	8.724	5.113	28.481	C.3	23	HIS524	0.000	
180	   C	8.812	6.089	29.666	C.2	23	HIS524	0.000	
181	   O	7.813	6.686	30.055	O.2	23	HIS524	0.000	
182	  CB	8.649	3.683	28.980	C.3	23	HIS524	0.000	
183	  CG	7.612	3.487	30.047	C.2	23	HIS524	0.000	
184	 CD2	7.730	3.345	31.391	C.2	23	HIS524	0.000	
185	 ND1	6.256	3.477	29.778	N.2	23	HIS524	0.000	
186	 CE1	5.589	3.316	30.906	C.2	23	HIS524	0.000	
187	 NE2	6.459	3.227	31.900	N.pl3	23	HIS524	0.000	
188	   N	9.992	6.248	30.252	N.am	24	LEU525	0.000	
189	  CA	10.101	7.101	31.430	C.3	24	LEU525	0.000	
190	   C	9.790	8.576	31.133	C.2	24	LEU525	0.000	
191	   O	9.363	9.297	32.005	O.2	24	LEU525	0.000	
192	  CB	11.469	6.975	32.086	C.3	24	LEU525	0.000	
193	  CG	11.906	5.602	32.643	C.3	24	LEU525	0.000	
194	 CD1	13.333	5.633	33.030	C.3	24	LEU525	0.000	
195	 CD2	11.054	5.154	33.833	C.3	24	LEU525	0.000	
196	   N	15.416	17.051	33.922	N.3	25	LEU536	0.000	
197	  CA	16.594	16.293	34.328	C.3	25	LEU536	0.000	
198	   C	17.941	17.043	34.285	C.2	25	LEU536	0.000	
199	   O	18.734	16.905	35.210	O.2	25	LEU536	0.000	
200	  CB	16.692	14.955	33.566	C.3	25	LEU536	0.000	
201	  CG	15.861	13.808	34.141	C.3	25	LEU536	0.000	
202	 CD1	16.380	12.445	33.671	C.3	25	LEU536	0.000	
203	 CD2	15.776	13.808	35.668	C.3	25	LEU536	0.000	
204	   N	17.914	19.013	37.445	N.3	26	LEU539	0.000	
205	  CA	17.961	18.177	38.629	C.3	26	LEU539	0.000	
206	   C	19.383	17.672	38.886	C.2	26	LEU539	0.000	
207	   O	19.838	17.696	40.015	O.2	26	LEU539	0.000	
208	  CB	17.000	16.991	38.485	C.3	26	LEU539	0.000	
209	  CG	16.819	16.055	39.669	C.3	26	LEU539	0.000	
210	 CD1	16.026	16.707	40.803	C.3	26	LEU539	0.000	
211	 CD2	16.122	14.732	39.240	C.3	26	LEU539	0.000	
@<TRIPOS>BOND
1 1 2 1
2 2 3 1
3 2 5 1
4 3 4 2
5 5 6 1
6 6 7 1
7 7 8 1
8 9 10 1
9 10 11 1
10 10 13 1
11 11 12 2
12 11 17 1
13 13 14 1
14 14 15 1
15 14 16 1
16 17 18 1
17 18 19 1
18 18 21 1
19 19 20 2
20 21 22 1
21 21 23 1
22 24 25 1
23 25 26 1
24 25 28 1
25 26 27 2
26 26 32 1
27 28 29 1
28 29 30 1
29 29 31 1
30 32 33 1
31 33 34 1
32 33 36 1
33 34 35 2
34 34 37 1
35 37 38 1
36 38 39 1
37 38 41 1
38 39 40 2
39 41 42 1
40 42 43 2
41 42 44 1
42 45 46 1
43 46 47 1
44 46 49 1
45 47 48 2
46 47 54 1
47 49 50 1
48 50 51 1
49 51 52 2
50 51 53 1
51 54 55 1
52 55 56 1
53 55 58 1
54 56 57 2
55 58 59 1
56 59 60 1
57 59 61 1
58 62 63 1
59 63 64 1
60 63 66 1
61 64 65 2
62 64 76 1
63 66 67 1
64 67 68 2
65 67 69 1
66 68 72 1
67 69 70 2
68 69 71 1
69 70 73 1
70 71 74 2
71 70 72 1
72 73 75 2
73 74 75 1
74 76 77 1
75 77 78 1
76 77 80 1
77 78 79 2
78 80 81 1
79 81 82 1
80 81 83 1
81 84 85 1
82 85 86 1
83 85 88 1
84 86 87 2
85 86 92 1
86 88 89 1
87 89 90 1
88 89 91 1
89 92 93 1
90 93 94 1
91 93 96 1
92 94 95 2
93 96 97 1
94 97 98 1
95 98 99 1
96 100 101 1
97 101 102 1
98 101 104 1
99 102 103 2
100 104 105 1
101 105 106 1
102 105 107 1
103 108 109 1
104 109 110 1
105 109 112 1
106 110 111 2
107 112 113 1
108 113 114 1
109 114 115 1
110 115 116 1
111 116 117 2
112 116 118 1
113 119 120 1
114 120 121 1
115 120 123 1
116 121 122 2
117 123 124 1
118 124 125 2
119 124 126 1
120 125 127 1
121 126 128 2
122 127 129 2
123 128 129 1
124 130 131 1
125 131 132 1
126 131 134 1
127 132 133 2
128 132 137 1
129 134 135 1
130 134 136 1
131 137 138 1
132 138 139 1
133 138 141 1
134 139 140 2
135 139 146 1
136 141 142 1
137 142 143 1
138 143 144 2
139 143 145 1
140 146 147 1
141 147 148 1
142 148 149 2
143 148 150 1
144 150 151 1
145 151 152 1
146 151 154 1
147 152 153 2
148 154 155 1
149 155 156 1
150 156 157 1
151 158 159 1
152 159 160 1
153 159 162 1
154 160 161 2
155 162 163 1
156 162 164 1
157 163 165 1
158 166 167 1
159 167 168 1
160 167 170 1
161 168 169 2
162 170 171 1
163 171 172 1
164 171 173 1
165 174 175 1
166 175 176 1
167 176 177 2
168 178 179 1
169 179 180 1
170 179 182 1
171 180 181 2
172 180 188 1
173 182 183 1
174 183 184 2
175 183 185 1
176 184 187 1
177 185 186 2
178 186 187 1
179 188 189 1
180 189 190 1
181 189 192 1
182 190 191 2
183 192 193 1
184 193 194 1
185 193 195 1
186 196 197 1
187 197 198 1
188 197 200 1
189 198 199 2
190 200 201 1
191 201 202 1
192 201 203 1
193 204 205 1
194 205 206 1
195 205 208 1
196 206 207 2
197 208 209 1
198 209 210 1
199 209 211 1
@<TRIPOS>SUBSTRUCTURE
1	MET343	1	RESIDUE	1 A	MET
2	LEU346	9	RESIDUE	1 A	LEU
3	THR347	17	RESIDUE	1 A	THR
4	LEU349	24	RESIDUE	1 A	LEU
5	ALA350	32	RESIDUE	1 A	ALA
6	ASP351	37	RESIDUE	1 A	ASP
7	GLU353	45	RESIDUE	1 A	GLU
8	LEU354	54	RESIDUE	1 A	LEU
9	TRP383	62	RESIDUE	1 A	TRP
10	LEU384	76	RESIDUE	1 A	LEU
11	LEU387	84	RESIDUE	1 A	LEU
12	MET388	92	RESIDUE	1 A	MET
13	LEU391	100	RESIDUE	1 A	LEU
14	ARG394	108	RESIDUE	1 A	ARG
15	PHE404	119	RESIDUE	1 A	PHE
16	VAL418	130	RESIDUE	1 A	VAL
17	GLU419	137	RESIDUE	1 A	GLU
18	GLY420	146	RESIDUE	1 A	GLY
19	MET421	150	RESIDUE	1 A	MET
20	ILE424	158	RESIDUE	1 A	ILE
21	LEU428	166	RESIDUE	1 A	LEU
22	GLY521	174	RESIDUE	1 A	GLY
23	HIS524	178	RESIDUE	1 A	HIS
24	LEU525	188	RESIDUE	1 A	LEU
25	LEU536	196	RESIDUE	1 A	LEU
26	LEU539	204	RESIDUE	1 A	LEU
