# created with PyMOL 2.5.0
@<TRIPOS>MOLECULE
2b1z
145 133 18              
SMALL
USER_CHARGES
@<TRIPOS>ATOM
1	   N	-1.925	7.331	-12.742	N.3	1	MET343	0.000	
2	  CA	-1.835	6.010	-12.125	C.3	1	MET343	0.000	
3	   C	-1.296	4.995	-13.125	C.2	1	MET343	0.000	
4	   O	-0.520	4.107	-12.761	O.2	1	MET343	0.000	
5	  CB	-3.191	5.554	-11.586	C.3	1	MET343	0.000	
6	  CG	-3.530	6.099	-10.211	C.3	1	MET343	0.000	
7	  SD	-2.281	5.662	-8.972	S.3	1	MET343	0.000	
8	  CE	-2.453	3.878	-8.913	C.3	1	MET343	0.000	
9	   N	2.481	5.422	-13.399	N.3	2	LEU346	0.000	
10	  CA	3.145	5.027	-12.162	C.3	2	LEU346	0.000	
11	   C	3.162	3.516	-12.003	C.2	2	LEU346	0.000	
12	   O	4.159	2.951	-11.568	O.2	2	LEU346	0.000	
13	  CB	2.449	5.665	-10.964	C.3	2	LEU346	0.000	
14	  CG	2.637	7.174	-10.801	C.3	2	LEU346	0.000	
15	 CD1	1.990	7.619	-9.509	C.3	2	LEU346	0.000	
16	 CD2	4.122	7.525	-10.816	C.3	2	LEU346	0.000	
17	   N	2.054	2.866	-12.354	N.am	3	THR347	0.000	
18	  CA	1.958	1.415	-12.207	C.3	3	THR347	0.000	
19	   C	2.701	0.673	-13.323	C.2	3	THR347	0.000	
20	   O	3.229	-0.416	-13.106	O.2	3	THR347	0.000	
21	  CB	0.498	0.934	-12.116	C.3	3	THR347	0.000	
22	 CG2	-0.126	1.356	-10.780	C.3	3	THR347	0.000	
23	 OG1	-0.262	1.485	-13.190	O.3	3	THR347	0.000	
24	   N	5.450	1.809	-14.670	N.3	4	LEU349	0.000	
25	  CA	6.821	1.907	-14.169	C.3	4	LEU349	0.000	
26	   C	7.108	0.833	-13.109	C.2	4	LEU349	0.000	
27	   O	8.077	0.082	-13.225	O.2	4	LEU349	0.000	
28	  CB	7.073	3.314	-13.605	C.3	4	LEU349	0.000	
29	  CG	8.464	3.593	-13.058	C.3	4	LEU349	0.000	
30	 CD1	9.535	3.391	-14.146	C.3	4	LEU349	0.000	
31	 CD2	8.529	5.009	-12.489	C.3	4	LEU349	0.000	
32	   N	6.256	0.753	-12.088	N.am	5	ALA350	0.000	
33	  CA	6.422	-0.237	-11.028	C.3	5	ALA350	0.000	
34	   C	6.541	-1.655	-11.594	C.2	5	ALA350	0.000	
35	   O	7.425	-2.417	-11.198	O.2	5	ALA350	0.000	
36	  CB	5.263	-0.151	-10.023	C.3	5	ALA350	0.000	
37	   N	9.907	-2.129	-13.246	N.3	6	GLU353	0.000	
38	  CA	10.932	-2.136	-12.223	C.3	6	GLU353	0.000	
39	   C	10.949	-3.442	-11.443	C.2	6	GLU353	0.000	
40	   O	12.005	-3.912	-11.035	O.2	6	GLU353	0.000	
41	  CB	10.708	-0.990	-11.257	C.3	6	GLU353	0.000	
42	  CG	11.100	0.362	-11.810	C.3	6	GLU353	0.000	
43	  CD	11.166	1.370	-10.701	C.2	6	GLU353	0.000	
44	 OE1	10.105	1.927	-10.346	O.co2	6	GLU353	0.000	
45	 OE2	12.270	1.569	-10.148	O.co2	6	GLU353	0.000	
46	   N	7.300	-3.158	-2.268	N.3	7	LEU384	0.000	
47	  CA	6.952	-1.727	-2.294	C.3	7	LEU384	0.000	
48	   C	7.925	-0.887	-1.453	C.2	7	LEU384	0.000	
49	   O	8.291	0.224	-1.843	O.2	7	LEU384	0.000	
50	  CB	5.483	-1.481	-1.909	C.3	7	LEU384	0.000	
51	  CG	4.976	-0.038	-2.111	C.3	7	LEU384	0.000	
52	 CD1	5.265	0.461	-3.518	C.3	7	LEU384	0.000	
53	 CD2	3.496	0.066	-1.803	C.3	7	LEU384	0.000	
54	   N	10.834	-0.488	-3.834	N.3	8	LEU387	0.000	
55	  CA	10.578	0.559	-4.823	C.3	8	LEU387	0.000	
56	   C	10.658	1.944	-4.181	C.2	8	LEU387	0.000	
57	   O	11.228	2.868	-4.755	O.2	8	LEU387	0.000	
58	  CB	9.225	0.379	-5.507	C.3	8	LEU387	0.000	
59	  CG	9.058	-0.820	-6.449	C.3	8	LEU387	0.000	
60	 CD1	7.634	-0.818	-6.983	C.3	8	LEU387	0.000	
61	 CD2	10.076	-0.747	-7.598	C.3	8	LEU387	0.000	
62	   N	10.083	2.076	-2.990	N.am	9	MET388	0.000	
63	  CA	10.028	3.364	-2.305	C.3	9	MET388	0.000	
64	   C	11.389	3.872	-1.846	C.2	9	MET388	0.000	
65	   O	11.684	5.055	-1.995	O.2	9	MET388	0.000	
66	  CB	9.068	3.300	-1.116	C.3	9	MET388	0.000	
67	  CG	7.601	3.305	-1.515	C.3	9	MET388	0.000	
68	  SD	6.544	3.191	-0.058	S.3	9	MET388	0.000	
69	  CE	4.953	3.627	-0.779	C.3	9	MET388	0.000	
70	   N	13.013	5.229	-4.882	N.3	10	LEU391	0.000	
71	  CA	12.440	6.530	-5.241	C.3	10	LEU391	0.000	
72	   C	12.970	7.665	-4.361	C.2	10	LEU391	0.000	
73	   O	13.318	8.740	-4.843	O.2	10	LEU391	0.000	
74	  CB	10.928	6.465	-5.093	C.3	10	LEU391	0.000	
75	  CG	10.211	7.790	-5.288	C.3	10	LEU391	0.000	
76	 CD1	10.396	8.247	-6.719	C.3	10	LEU391	0.000	
77	 CD2	8.742	7.650	-4.936	C.3	10	LEU391	0.000	
78	   N	16.590	8.399	-5.299	N.3	11	ARG394	0.000	
79	  CA	16.658	9.142	-6.553	C.3	11	ARG394	0.000	
80	   C	16.255	10.606	-6.364	C.2	11	ARG394	0.000	
81	   O	16.788	11.480	-7.029	O.2	11	ARG394	0.000	
82	  CB	15.757	8.513	-7.630	C.3	11	ARG394	0.000	
83	  CG	16.153	7.120	-8.069	C.3	11	ARG394	0.000	
84	  CD	15.466	6.737	-9.369	C.3	11	ARG394	0.000	
85	  NE	14.013	6.605	-9.268	N.pl3	11	ARG394	0.000	
86	  CZ	13.378	5.543	-8.783	C.cat	11	ARG394	0.000	
87	 NH1	14.065	4.524	-8.293	N.pl3	11	ARG394	0.000	
88	 NH2	12.047	5.516	-8.761	N.pl3	11	ARG394	0.000	
89	   N	10.307	9.793	-9.988	N.3	12	PHE404	0.000	
90	  CA	9.895	8.421	-10.311	C.3	12	PHE404	0.000	
91	   C	10.750	7.874	-11.451	C.2	12	PHE404	0.000	
92	   O	11.206	6.726	-11.408	O.2	12	PHE404	0.000	
93	  CB	8.405	8.357	-10.640	C.3	12	PHE404	0.000	
94	  CG	7.515	8.436	-9.426	C.2	12	PHE404	0.000	
95	 CD1	7.107	7.283	-8.769	C.2	12	PHE404	0.000	
96	 CD2	7.090	9.663	-8.943	C.2	12	PHE404	0.000	
97	 CE1	6.290	7.356	-7.643	C.2	12	PHE404	0.000	
98	 CE2	6.268	9.745	-7.813	C.2	12	PHE404	0.000	
99	  CZ	5.872	8.598	-7.165	C.2	12	PHE404	0.000	
100	   N	-3.458	10.197	-3.042	N.3	13	MET421	0.000	
101	  CA	-2.030	10.021	-3.285	C.3	13	MET421	0.000	
102	   C	-1.147	11.095	-2.642	C.2	13	MET421	0.000	
103	   O	0.002	10.830	-2.303	O.2	13	MET421	0.000	
104	  CB	-1.746	9.928	-4.785	C.3	13	MET421	0.000	
105	  CG	-0.351	9.453	-5.117	C.3	13	MET421	0.000	
106	  SD	-0.185	9.052	-6.860	S.3	13	MET421	0.000	
107	  CE	-0.292	10.688	-7.583	C.3	13	MET421	0.000	
108	   N	0.599	10.193	0.552	N.3	14	ILE424	0.000	
109	  CA	1.698	9.258	0.355	C.3	14	ILE424	0.000	
110	   C	2.902	10.013	-0.190	C.2	14	ILE424	0.000	
111	   O	4.021	9.811	0.275	O.2	14	ILE424	0.000	
112	  CB	1.277	8.074	-0.544	C.3	14	ILE424	0.000	
113	 CG1	-0.002	7.444	0.024	C.3	14	ILE424	0.000	
114	 CG2	2.402	7.045	-0.673	C.3	14	ILE424	0.000	
115	 CD1	-0.093	5.956	-0.145	C.3	14	ILE424	0.000	
116	   N	6.793	10.319	1.381	N.3	15	LEU428	0.000	
117	  CA	7.968	10.007	0.565	C.3	15	LEU428	0.000	
118	   C	8.935	11.188	0.532	C.2	15	LEU428	0.000	
119	   O	10.135	11.007	0.671	O.2	15	LEU428	0.000	
120	  CB	7.563	9.589	-0.849	C.3	15	LEU428	0.000	
121	  CG	6.891	8.216	-0.926	C.3	15	LEU428	0.000	
122	 CD1	6.064	8.088	-2.190	C.3	15	LEU428	0.000	
123	 CD2	7.924	7.091	-0.799	C.3	15	LEU428	0.000	
124	   N	0.866	2.809	1.221	N.3	16	GLY521	0.000	
125	  CA	0.902	2.691	-0.239	C.3	16	GLY521	0.000	
126	   C	0.135	1.486	-0.745	C.2	16	GLY521	0.000	
127	   O	-0.574	1.569	-1.749	O.2	16	GLY521	0.000	
128	   N	-3.476	2.146	-0.588	N.3	17	HIS524	0.000	
129	  CA	-3.839	3.084	-1.647	C.3	17	HIS524	0.000	
130	   C	-3.929	2.394	-3.000	C.2	17	HIS524	0.000	
131	   O	-4.870	2.621	-3.767	O.2	17	HIS524	0.000	
132	  CB	-2.834	4.227	-1.740	C.3	17	HIS524	0.000	
133	  CG	-3.104	5.164	-2.878	C.2	17	HIS524	0.000	
134	 CD2	-2.471	5.334	-4.062	C.2	17	HIS524	0.000	
135	 ND1	-4.155	6.054	-2.875	N.2	17	HIS524	0.000	
136	 CE1	-4.152	6.740	-4.005	C.2	17	HIS524	0.000	
137	 NE2	-3.140	6.323	-4.743	N.pl3	17	HIS524	0.000	
138	   N	-2.942	1.556	-3.290	N.am	18	LEU525	0.000	
139	  CA	-2.904	0.831	-4.554	C.3	18	LEU525	0.000	
140	   C	-4.088	-0.119	-4.644	C.2	18	LEU525	0.000	
141	   O	-4.702	-0.268	-5.704	O.2	18	LEU525	0.000	
142	  CB	-1.574	0.080	-4.696	C.3	18	LEU525	0.000	
143	  CG	-1.289	-0.668	-6.001	C.3	18	LEU525	0.000	
144	 CD1	-1.338	0.281	-7.192	C.3	18	LEU525	0.000	
145	 CD2	0.068	-1.374	-5.927	C.3	18	LEU525	0.000	
@<TRIPOS>BOND
1 1 2 1
2 2 3 1
3 2 5 1
4 3 4 2
5 5 6 1
6 6 7 1
7 7 8 1
8 9 10 1
9 10 11 1
10 10 13 1
11 11 12 2
12 11 17 1
13 13 14 1
14 14 15 1
15 14 16 1
16 17 18 1
17 18 19 1
18 18 21 1
19 19 20 2
20 21 22 1
21 21 23 1
22 24 25 1
23 25 26 1
24 25 28 1
25 26 27 2
26 26 32 1
27 28 29 1
28 29 30 1
29 29 31 1
30 32 33 1
31 33 34 1
32 33 36 1
33 34 35 2
34 37 38 1
35 38 39 1
36 38 41 1
37 39 40 2
38 41 42 1
39 42 43 1
40 43 44 2
41 43 45 1
42 46 47 1
43 47 48 1
44 47 50 1
45 48 49 2
46 50 51 1
47 51 52 1
48 51 53 1
49 54 55 1
50 55 56 1
51 55 58 1
52 56 57 2
53 56 62 1
54 58 59 1
55 59 60 1
56 59 61 1
57 62 63 1
58 63 64 1
59 63 66 1
60 64 65 2
61 66 67 1
62 67 68 1
63 68 69 1
64 70 71 1
65 71 72 1
66 71 74 1
67 72 73 2
68 74 75 1
69 75 76 1
70 75 77 1
71 78 79 1
72 79 80 1
73 79 82 1
74 80 81 2
75 82 83 1
76 83 84 1
77 84 85 1
78 85 86 1
79 86 87 2
80 86 88 1
81 89 90 1
82 90 91 1
83 90 93 1
84 91 92 2
85 93 94 1
86 94 95 2
87 94 96 1
88 95 97 1
89 96 98 2
90 97 99 2
91 98 99 1
92 100 101 1
93 101 102 1
94 101 104 1
95 102 103 2
96 104 105 1
97 105 106 1
98 106 107 1
99 108 109 1
100 109 110 1
101 109 112 1
102 110 111 2
103 112 113 1
104 112 114 1
105 113 115 1
106 116 117 1
107 117 118 1
108 117 120 1
109 118 119 2
110 120 121 1
111 121 122 1
112 121 123 1
113 124 125 1
114 125 126 1
115 126 127 2
116 128 129 1
117 129 130 1
118 129 132 1
119 130 131 2
120 130 138 1
121 132 133 1
122 133 134 2
123 133 135 1
124 134 137 1
125 135 136 2
126 136 137 1
127 138 139 1
128 139 140 1
129 139 142 1
130 140 141 2
131 142 143 1
132 143 144 1
133 143 145 1
@<TRIPOS>SUBSTRUCTURE
1	MET343	1	RESIDUE	1 A	MET
2	LEU346	9	RESIDUE	1 A	LEU
3	THR347	17	RESIDUE	1 A	THR
4	LEU349	24	RESIDUE	1 A	LEU
5	ALA350	32	RESIDUE	1 A	ALA
6	GLU353	37	RESIDUE	1 A	GLU
7	LEU384	46	RESIDUE	1 A	LEU
8	LEU387	54	RESIDUE	1 A	LEU
9	MET388	62	RESIDUE	1 A	MET
10	LEU391	70	RESIDUE	1 A	LEU
11	ARG394	78	RESIDUE	1 A	ARG
12	PHE404	89	RESIDUE	1 A	PHE
13	MET421	100	RESIDUE	1 A	MET
14	ILE424	108	RESIDUE	1 A	ILE
15	LEU428	116	RESIDUE	1 A	LEU
16	GLY521	124	RESIDUE	1 A	GLY
17	HIS524	128	RESIDUE	1 A	HIS
18	LEU525	138	RESIDUE	1 A	LEU
