# created with PyMOL 2.5.0
@<TRIPOS>MOLECULE
2giu
179 166 22              
SMALL
USER_CHARGES
@<TRIPOS>ATOM
1	   N	14.879	15.603	111.422	N.3	1	MET294	0.000	
2	  CA	16.241	15.318	111.862	C.3	1	MET294	0.000	
3	   C	16.503	13.818	111.696	C.2	1	MET294	0.000	
4	   O	17.468	13.451	111.028	O.2	1	MET294	0.000	
5	  CB	16.482	15.730	113.308	C.3	1	MET294	0.000	
6	  CG	17.926	16.043	113.662	C.3	1	MET294	0.000	
7	  SD	18.070	16.976	115.202	S.3	1	MET294	0.000	
8	  CE	19.093	15.860	116.164	C.3	1	MET294	0.000	
9	   N	15.626	13.024	112.299	N.am	2	MET295	0.000	
10	  CA	15.647	11.571	112.228	C.3	2	MET295	0.000	
11	   C	15.349	11.075	110.822	C.2	2	MET295	0.000	
12	   O	15.731	9.967	110.443	O.2	2	MET295	0.000	
13	  CB	14.645	10.945	113.203	C.3	2	MET295	0.000	
14	  CG	14.969	11.273	114.657	C.3	2	MET295	0.000	
15	  SD	16.617	10.728	115.152	S.3	2	MET295	0.000	
16	  CE	16.520	9.002	114.657	C.3	2	MET295	0.000	
17	   N	18.746	11.958	109.262	N.3	3	LEU298	0.000	
18	  CA	19.741	11.105	109.888	C.3	3	LEU298	0.000	
19	   C	19.655	9.670	109.390	C.2	3	LEU298	0.000	
20	   O	20.705	9.090	109.076	O.2	3	LEU298	0.000	
21	  CB	19.613	11.150	111.412	C.3	3	LEU298	0.000	
22	  CG	19.949	12.466	112.118	C.3	3	LEU298	0.000	
23	 CD1	19.734	12.325	113.620	C.3	3	LEU298	0.000	
24	 CD2	21.373	12.904	111.816	C.3	3	LEU298	0.000	
25	   N	18.472	9.070	109.302	N.am	4	THR299	0.000	
26	  CA	18.404	7.681	108.833	C.3	4	THR299	0.000	
27	   C	18.719	7.545	107.351	C.2	4	THR299	0.000	
28	   O	19.259	6.551	106.864	O.2	4	THR299	0.000	
29	  CB	17.016	7.065	109.076	C.3	4	THR299	0.000	
30	 CG2	17.002	6.368	110.425	C.3	4	THR299	0.000	
31	 OG1	16.026	8.101	109.104	O.3	4	THR299	0.000	
32	   N	20.858	9.436	105.799	N.3	5	LEU301	0.000	
33	  CA	22.315	9.549	105.816	C.3	5	LEU301	0.000	
34	   C	22.977	8.208	106.108	C.2	5	LEU301	0.000	
35	   O	23.863	7.756	105.372	O.2	5	LEU301	0.000	
36	  CB	22.743	10.606	106.838	C.3	5	LEU301	0.000	
37	  CG	24.239	10.947	106.876	C.3	5	LEU301	0.000	
38	 CD1	24.693	11.507	105.535	C.3	5	LEU301	0.000	
39	 CD2	24.559	11.914	108.006	C.3	5	LEU301	0.000	
40	   N	22.570	7.524	107.178	N.am	6	ALA302	0.000	
41	  CA	23.197	6.247	107.504	C.3	6	ALA302	0.000	
42	   C	23.061	5.235	106.374	C.2	6	ALA302	0.000	
43	   O	24.033	4.527	106.103	O.2	6	ALA302	0.000	
44	  CB	22.629	5.624	108.775	C.3	6	ALA302	0.000	
45	   N	25.741	6.208	104.101	N.3	7	GLU305	0.000	
46	  CA	27.056	5.910	104.656	C.3	7	GLU305	0.000	
47	   C	27.327	4.415	104.746	C.2	7	GLU305	0.000	
48	   O	28.490	4.001	104.656	O.2	7	GLU305	0.000	
49	  CB	27.209	6.537	106.045	C.3	7	GLU305	0.000	
50	  CG	27.044	8.044	106.098	C.3	7	GLU305	0.000	
51	  CD	27.438	8.613	107.449	C.2	7	GLU305	0.000	
52	 OE1	26.584	8.666	108.360	O.co2	7	GLU305	0.000	
53	 OE2	28.611	9.018	107.597	O.co2	7	GLU305	0.000	
54	   N	27.371	1.414	113.786	N.3	8	MET336	0.000	
55	  CA	27.187	2.709	114.456	C.3	8	MET336	0.000	
56	   C	28.434	3.266	115.127	C.2	8	MET336	0.000	
57	   O	28.650	4.491	115.056	O.2	8	MET336	0.000	
58	  CB	26.034	2.553	115.456	C.3	8	MET336	0.000	
59	  CG	25.589	3.798	116.189	C.3	8	MET336	0.000	
60	  SD	24.767	5.012	115.154	S.3	8	MET336	0.000	
61	  CE	23.052	4.535	115.343	C.3	8	MET336	0.000	
62	   N	30.459	4.878	112.286	N.3	9	LEU339	0.000	
63	  CA	29.852	6.099	111.771	C.3	9	LEU339	0.000	
64	   C	29.978	7.228	112.793	C.2	9	LEU339	0.000	
65	   O	30.032	8.397	112.412	O.2	9	LEU339	0.000	
66	  CB	28.381	5.939	111.410	C.3	9	LEU339	0.000	
67	  CG	27.984	4.825	110.443	C.3	9	LEU339	0.000	
68	 CD1	26.464	4.733	110.375	C.3	9	LEU339	0.000	
69	 CD2	28.587	5.023	109.059	C.3	9	LEU339	0.000	
70	   N	30.026	6.860	114.069	N.am	10	MET340	0.000	
71	  CA	30.226	7.862	115.119	C.3	10	MET340	0.000	
72	   C	31.692	8.279	115.237	C.2	10	MET340	0.000	
73	   O	31.963	9.468	115.443	O.2	10	MET340	0.000	
74	  CB	29.716	7.328	116.453	C.3	10	MET340	0.000	
75	  CG	28.212	7.448	116.656	C.3	10	MET340	0.000	
76	  SD	27.710	6.603	118.173	S.3	10	MET340	0.000	
77	  CE	26.144	7.410	118.490	C.3	10	MET340	0.000	
78	   N	32.240	10.663	112.580	N.3	11	LEU343	0.000	
79	  CA	31.563	11.909	112.919	C.3	11	LEU343	0.000	
80	   C	32.372	12.773	113.873	C.2	11	LEU343	0.000	
81	   O	32.565	13.968	113.667	O.2	11	LEU343	0.000	
82	  CB	30.198	11.629	113.567	C.3	11	LEU343	0.000	
83	  CG	29.545	12.810	114.293	C.3	11	LEU343	0.000	
84	 CD1	29.052	13.832	113.271	C.3	11	LEU343	0.000	
85	 CD2	28.418	12.346	115.202	C.3	11	LEU343	0.000	
86	   N	35.200	14.240	112.108	N.3	12	ARG346	0.000	
87	  CA	34.766	15.351	111.264	C.3	12	ARG346	0.000	
88	   C	34.450	16.617	112.055	C.2	12	ARG346	0.000	
89	   O	34.536	17.733	111.523	O.2	12	ARG346	0.000	
90	  CB	33.518	14.961	110.463	C.3	12	ARG346	0.000	
91	  CG	33.768	14.192	109.187	C.3	12	ARG346	0.000	
92	  CD	32.560	14.228	108.265	C.3	12	ARG346	0.000	
93	  NE	31.378	13.616	108.868	N.pl3	12	ARG346	0.000	
94	  CZ	31.195	12.302	108.843	C.cat	12	ARG346	0.000	
95	 NH1	32.099	11.518	108.268	N.pl3	12	ARG346	0.000	
96	 NH2	30.118	11.779	109.393	N.pl3	12	ARG346	0.000	
97	   N	28.222	19.380	115.586	N.3	13	LEU354	0.000	
98	  CA	28.429	18.093	114.953	C.3	13	LEU354	0.000	
99	   C	28.278	18.196	113.436	C.2	13	LEU354	0.000	
100	   O	27.247	18.656	112.942	O.2	13	LEU354	0.000	
101	  CB	27.446	17.077	115.529	C.3	13	LEU354	0.000	
102	  CG	27.710	16.787	117.010	C.3	13	LEU354	0.000	
103	 CD1	26.946	15.548	117.445	C.3	13	LEU354	0.000	
104	 CD2	29.209	16.664	117.219	C.3	13	LEU354	0.000	
105	   N	27.767	16.207	110.508	N.3	14	PHE356	0.000	
106	  CA	27.216	14.961	110.006	C.3	14	PHE356	0.000	
107	   C	27.507	14.749	108.526	C.2	14	PHE356	0.000	
108	   O	27.742	13.633	108.069	O.2	14	PHE356	0.000	
109	  CB	25.699	14.933	110.257	C.3	14	PHE356	0.000	
110	  CG	25.372	14.789	111.741	C.2	14	PHE356	0.000	
111	 CD1	25.417	13.551	112.359	C.2	14	PHE356	0.000	
112	 CD2	25.030	15.882	112.510	C.2	14	PHE356	0.000	
113	 CE1	25.127	13.421	113.705	C.2	14	PHE356	0.000	
114	 CE2	24.740	15.759	113.856	C.2	14	PHE356	0.000	
115	  CZ	24.792	14.522	114.466	C.2	14	PHE356	0.000	
116	   N	17.715	12.481	121.865	N.3	15	ILE373	0.000	
117	  CA	18.839	12.854	121.042	C.3	15	ILE373	0.000	
118	   C	19.749	13.832	121.767	C.2	15	ILE373	0.000	
119	   O	20.962	13.864	121.559	O.2	15	ILE373	0.000	
120	  CB	18.341	13.484	119.725	C.3	15	ILE373	0.000	
121	 CG1	17.674	12.466	118.794	C.3	15	ILE373	0.000	
122	 CG2	19.460	14.245	119.037	C.3	15	ILE373	0.000	
123	 CD1	18.657	11.506	118.158	C.3	15	ILE373	0.000	
124	   N	22.499	11.778	123.752	N.3	16	ILE376	0.000	
125	  CA	23.498	11.255	122.825	C.3	16	ILE376	0.000	
126	   C	24.389	12.392	122.325	C.2	16	ILE376	0.000	
127	   O	25.618	12.270	122.310	O.2	16	ILE376	0.000	
128	  CB	22.832	10.516	121.652	C.3	16	ILE376	0.000	
129	 CG1	21.962	9.330	122.089	C.3	16	ILE376	0.000	
130	 CG2	23.851	10.048	120.627	C.3	16	ILE376	0.000	
131	 CD1	21.401	8.546	120.918	C.3	16	ILE376	0.000	
132	   N	23.757	13.500	121.948	N.am	17	PHE377	0.000	
133	  CA	24.459	14.694	121.501	C.3	17	PHE377	0.000	
134	   C	25.594	15.091	122.435	C.2	17	PHE377	0.000	
135	   O	26.696	15.468	122.016	O.2	17	PHE377	0.000	
136	  CB	23.473	15.864	121.350	C.3	17	PHE377	0.000	
137	  CG	23.941	16.870	120.306	C.2	17	PHE377	0.000	
138	 CD1	24.906	17.805	120.625	C.2	17	PHE377	0.000	
139	 CD2	23.414	16.863	119.025	C.2	17	PHE377	0.000	
140	 CE1	25.337	18.720	119.683	C.2	17	PHE377	0.000	
141	 CE2	23.839	17.770	118.070	C.2	17	PHE377	0.000	
142	  CZ	24.812	18.696	118.404	C.2	17	PHE377	0.000	
143	   N	28.613	12.629	122.398	N.3	18	LEU380	0.000	
144	  CA	29.491	12.758	121.232	C.3	18	LEU380	0.000	
145	   C	30.318	14.037	121.268	C.2	18	LEU380	0.000	
146	   O	31.431	14.097	120.738	O.2	18	LEU380	0.000	
147	  CB	28.695	12.714	119.931	C.3	18	LEU380	0.000	
148	  CG	27.976	11.419	119.562	C.3	18	LEU380	0.000	
149	 CD1	26.887	11.688	118.527	C.3	18	LEU380	0.000	
150	 CD2	28.944	10.374	119.030	C.3	18	LEU380	0.000	
151	   N	22.801	5.154	120.838	N.3	19	GLY472	0.000	
152	  CA	22.221	5.413	119.532	C.3	19	GLY472	0.000	
153	   C	21.390	4.240	119.045	C.2	19	GLY472	0.000	
154	   O	20.301	4.453	118.507	O.2	19	GLY472	0.000	
155	   N	18.014	4.223	121.011	N.3	20	HIS475	0.000	
156	  CA	17.167	5.273	120.486	C.3	20	HIS475	0.000	
157	   C	16.501	4.885	119.168	C.2	20	HIS475	0.000	
158	   O	15.345	5.233	118.949	O.2	20	HIS475	0.000	
159	  CB	17.965	6.551	120.213	C.3	20	HIS475	0.000	
160	  CG	17.109	7.697	119.768	C.2	20	HIS475	0.000	
161	 CD2	16.190	8.435	120.434	C.2	20	HIS475	0.000	
162	 ND1	17.150	8.212	118.495	N.2	20	HIS475	0.000	
163	 CE1	16.295	9.214	118.387	C.2	20	HIS475	0.000	
164	 NE2	15.699	9.368	119.552	N.pl3	20	HIS475	0.000	
165	   N	17.270	4.187	118.352	N.am	21	LEU476	0.000	
166	  CA	16.903	3.744	117.025	C.3	21	LEU476	0.000	
167	   C	15.851	2.646	116.985	C.2	21	LEU476	0.000	
168	   O	15.022	2.635	116.061	O.2	21	LEU476	0.000	
169	  CB	18.149	3.225	116.282	C.3	21	LEU476	0.000	
170	  CG	17.993	3.308	114.760	C.3	21	LEU476	0.000	
171	 CD1	17.162	4.532	114.413	C.3	21	LEU476	0.000	
172	 CD2	19.351	3.345	114.082	C.3	21	LEU476	0.000	
173	   N	17.200	1.651	108.639	N.3	22	VAL487	0.000	
174	  CA	18.651	1.526	108.506	C.3	22	VAL487	0.000	
175	   C	19.088	0.076	108.735	C.2	22	VAL487	0.000	
176	   O	19.654	-0.541	107.826	O.2	22	VAL487	0.000	
177	  CB	19.425	2.445	109.461	C.3	22	VAL487	0.000	
178	 CG1	20.908	2.431	109.111	C.3	22	VAL487	0.000	
179	 CG2	18.901	3.870	109.418	C.3	22	VAL487	0.000	
@<TRIPOS>BOND
1 1 2 1
2 2 3 1
3 2 5 1
4 3 4 2
5 3 9 1
6 5 6 1
7 6 7 1
8 7 8 1
9 9 10 1
10 10 11 1
11 10 13 1
12 11 12 2
13 13 14 1
14 14 15 1
15 15 16 1
16 17 18 1
17 18 19 1
18 18 21 1
19 19 20 2
20 19 25 1
21 21 22 1
22 22 23 1
23 22 24 1
24 25 26 1
25 26 27 1
26 26 29 1
27 27 28 2
28 29 30 1
29 29 31 1
30 32 33 1
31 33 34 1
32 33 36 1
33 34 35 2
34 34 40 1
35 36 37 1
36 37 38 1
37 37 39 1
38 40 41 1
39 41 42 1
40 41 44 1
41 42 43 2
42 45 46 1
43 46 47 1
44 46 49 1
45 47 48 2
46 49 50 1
47 50 51 1
48 51 52 2
49 51 53 1
50 54 55 1
51 55 56 1
52 55 58 1
53 56 57 2
54 58 59 1
55 59 60 1
56 60 61 1
57 62 63 1
58 63 64 1
59 63 66 1
60 64 65 2
61 64 70 1
62 66 67 1
63 67 68 1
64 67 69 1
65 70 71 1
66 71 72 1
67 71 74 1
68 72 73 2
69 74 75 1
70 75 76 1
71 76 77 1
72 78 79 1
73 79 80 1
74 79 82 1
75 80 81 2
76 82 83 1
77 83 84 1
78 83 85 1
79 86 87 1
80 87 88 1
81 87 90 1
82 88 89 2
83 90 91 1
84 91 92 1
85 92 93 1
86 93 94 1
87 94 95 2
88 94 96 1
89 97 98 1
90 98 99 1
91 98 101 1
92 99 100 2
93 101 102 1
94 102 103 1
95 102 104 1
96 105 106 1
97 106 107 1
98 106 109 1
99 107 108 2
100 109 110 1
101 110 111 2
102 110 112 1
103 111 113 1
104 112 114 2
105 113 115 2
106 114 115 1
107 116 117 1
108 117 118 1
109 117 120 1
110 118 119 2
111 120 121 1
112 120 122 1
113 121 123 1
114 124 125 1
115 125 126 1
116 125 128 1
117 126 127 2
118 126 132 1
119 128 129 1
120 128 130 1
121 129 131 1
122 132 133 1
123 133 134 1
124 133 136 1
125 134 135 2
126 136 137 1
127 137 138 2
128 137 139 1
129 138 140 1
130 139 141 2
131 140 142 2
132 141 142 1
133 143 144 1
134 144 145 1
135 144 147 1
136 145 146 2
137 147 148 1
138 148 149 1
139 148 150 1
140 151 152 1
141 152 153 1
142 153 154 2
143 155 156 1
144 156 157 1
145 156 159 1
146 157 158 2
147 157 165 1
148 159 160 1
149 160 161 2
150 160 162 1
151 161 164 1
152 162 163 2
153 163 164 1
154 165 166 1
155 166 167 1
156 166 169 1
157 167 168 2
158 169 170 1
159 170 171 1
160 170 172 1
161 173 174 1
162 174 175 1
163 174 177 1
164 175 176 2
165 177 178 1
166 177 179 1
@<TRIPOS>SUBSTRUCTURE
1	MET294	1	RESIDUE	1 A	MET
2	MET295	9	RESIDUE	1 A	MET
3	LEU298	17	RESIDUE	1 A	LEU
4	THR299	25	RESIDUE	1 A	THR
5	LEU301	32	RESIDUE	1 A	LEU
6	ALA302	40	RESIDUE	1 A	ALA
7	GLU305	45	RESIDUE	1 A	GLU
8	MET336	54	RESIDUE	1 A	MET
9	LEU339	62	RESIDUE	1 A	LEU
10	MET340	70	RESIDUE	1 A	MET
11	LEU343	78	RESIDUE	1 A	LEU
12	ARG346	86	RESIDUE	1 A	ARG
13	LEU354	97	RESIDUE	1 A	LEU
14	PHE356	105	RESIDUE	1 A	PHE
15	ILE373	116	RESIDUE	1 A	ILE
16	ILE376	124	RESIDUE	1 A	ILE
17	PHE377	132	RESIDUE	1 A	PHE
18	LEU380	143	RESIDUE	1 A	LEU
19	GLY472	151	RESIDUE	1 A	GLY
20	HIS475	155	RESIDUE	1 A	HIS
21	LEU476	165	RESIDUE	1 A	LEU
22	VAL487	173	RESIDUE	1 A	VAL
