# created with PyMOL 2.5.0
@<TRIPOS>MOLECULE
2i0j
163 155 19              
SMALL
USER_CHARGES
@<TRIPOS>ATOM
1	   N	36.849	-9.005	18.265	N.3	1	MET343	0.000	
2	  CA	36.508	-7.615	18.002	C.3	1	MET343	0.000	
3	   C	37.811	-6.835	18.036	C.2	1	MET343	0.000	
4	   O	38.049	-5.990	17.188	O.2	1	MET343	0.000	
5	  CB	35.556	-7.058	19.067	C.3	1	MET343	0.000	
6	  CG	34.110	-7.510	18.954	C.3	1	MET343	0.000	
7	  SD	33.448	-7.262	17.290	S.3	1	MET343	0.000	
8	  CE	32.868	-5.580	17.371	C.3	1	MET343	0.000	
9	   N	39.417	-7.203	14.759	N.3	2	LEU346	0.000	
10	  CA	38.594	-6.593	13.724	C.3	2	LEU346	0.000	
11	   C	38.551	-5.068	13.838	C.2	2	LEU346	0.000	
12	   O	38.731	-4.348	12.856	O.2	2	LEU346	0.000	
13	  CB	37.192	-7.189	13.768	C.3	2	LEU346	0.000	
14	  CG	37.276	-8.679	13.441	C.3	2	LEU346	0.000	
15	 CD1	35.890	-9.279	13.333	C.3	2	LEU346	0.000	
16	 CD2	38.020	-8.861	12.130	C.3	2	LEU346	0.000	
17	   N	41.759	-3.419	12.906	N.3	3	LEU349	0.000	
18	  CA	41.909	-3.466	11.460	C.3	3	LEU349	0.000	
19	   C	41.106	-2.339	10.817	C.2	3	LEU349	0.000	
20	   O	41.612	-1.620	9.953	O.2	3	LEU349	0.000	
21	  CB	41.415	-4.815	10.936	C.3	3	LEU349	0.000	
22	  CG	41.426	-4.974	9.422	C.3	3	LEU349	0.000	
23	 CD1	42.831	-4.831	8.912	C.3	3	LEU349	0.000	
24	 CD2	40.849	-6.324	9.050	C.3	3	LEU349	0.000	
25	   N	39.849	-2.205	11.243	N.am	4	ALA350	0.000	
26	  CA	38.956	-1.178	10.723	C.3	4	ALA350	0.000	
27	   C	39.497	0.236	10.958	C.2	4	ALA350	0.000	
28	   O	39.321	1.122	10.117	O.2	4	ALA350	0.000	
29	  CB	37.568	-1.326	11.352	C.3	4	ALA350	0.000	
30	   N	42.254	1.024	8.485	N.3	5	GLU353	0.000	
31	  CA	41.722	1.111	7.134	C.3	5	GLU353	0.000	
32	   C	41.024	2.444	6.920	C.2	5	GLU353	0.000	
33	   O	41.113	3.047	5.851	O.2	5	GLU353	0.000	
34	  CB	40.758	-0.040	6.884	C.3	5	GLU353	0.000	
35	  CG	41.428	-1.203	6.207	C.3	5	GLU353	0.000	
36	  CD	40.466	-2.310	5.876	C.2	5	GLU353	0.000	
37	 OE1	39.926	-2.909	6.823	O.co2	5	GLU353	0.000	
38	 OE2	40.251	-2.577	4.676	O.co2	5	GLU353	0.000	
39	   N	31.054	4.804	6.074	N.3	6	TRP383	0.000	
40	  CA	32.321	4.131	6.301	C.3	6	TRP383	0.000	
41	   C	32.188	2.618	6.467	C.2	6	TRP383	0.000	
42	   O	32.995	1.860	5.909	O.2	6	TRP383	0.000	
43	  CB	33.035	4.712	7.522	C.3	6	TRP383	0.000	
44	  CG	32.349	4.432	8.807	C.2	6	TRP383	0.000	
45	 CD1	31.380	5.175	9.386	C.2	6	TRP383	0.000	
46	 CD2	32.574	3.315	9.665	C.2	6	TRP383	0.000	
47	 CE2	31.700	3.446	10.756	C.2	6	TRP383	0.000	
48	 CE3	33.427	2.210	9.614	C.2	6	TRP383	0.000	
49	 NE1	30.980	4.595	10.564	N.pl3	6	TRP383	0.000	
50	 CZ2	31.654	2.510	11.800	C.2	6	TRP383	0.000	
51	 CZ3	33.385	1.277	10.648	C.2	6	TRP383	0.000	
52	 CH2	32.501	1.436	11.727	C.2	6	TRP383	0.000	
53	   N	31.188	2.168	7.224	N.am	7	LEU384	0.000	
54	  CA	31.046	0.734	7.428	C.3	7	LEU384	0.000	
55	   C	30.555	0.034	6.160	C.2	7	LEU384	0.000	
56	   O	30.998	-1.077	5.853	O.2	7	LEU384	0.000	
57	  CB	30.134	0.430	8.620	C.3	7	LEU384	0.000	
58	  CG	30.189	-1.025	9.096	C.3	7	LEU384	0.000	
59	 CD1	31.620	-1.456	9.193	C.3	7	LEU384	0.000	
60	 CD2	29.494	-1.189	10.431	C.3	7	LEU384	0.000	
61	   N	33.622	-0.303	4.097	N.3	8	LEU387	0.000	
62	  CA	34.515	-1.317	4.631	C.3	8	LEU387	0.000	
63	   C	33.960	-2.683	4.295	C.2	8	LEU387	0.000	
64	   O	34.702	-3.565	3.904	O.2	8	LEU387	0.000	
65	  CB	34.635	-1.196	6.150	C.3	8	LEU387	0.000	
66	  CG	35.539	-0.123	6.748	C.3	8	LEU387	0.000	
67	 CD1	35.665	-0.384	8.245	C.3	8	LEU387	0.000	
68	 CD2	36.910	-0.166	6.085	C.3	8	LEU387	0.000	
69	   N	32.655	-2.858	4.449	N.am	9	MET388	0.000	
70	  CA	32.059	-4.147	4.156	C.3	9	MET388	0.000	
71	   C	32.100	-4.544	2.675	C.2	9	MET388	0.000	
72	   O	32.466	-5.679	2.354	O.2	9	MET388	0.000	
73	  CB	30.625	-4.206	4.683	C.3	9	MET388	0.000	
74	  CG	30.529	-4.193	6.194	C.3	9	MET388	0.000	
75	  SD	28.846	-4.461	6.834	S.3	9	MET388	0.000	
76	  CE	29.180	-4.894	8.483	C.3	9	MET388	0.000	
77	   N	35.331	-5.837	2.044	N.3	10	LEU391	0.000	
78	  CA	35.491	-7.196	2.525	C.3	10	LEU391	0.000	
79	   C	34.823	-8.121	1.533	C.2	10	LEU391	0.000	
80	   O	35.487	-8.873	0.822	O.2	10	LEU391	0.000	
81	  CB	34.845	-7.380	3.898	C.3	10	LEU391	0.000	
82	  CG	34.817	-8.826	4.442	C.3	10	LEU391	0.000	
83	 CD1	36.233	-9.369	4.500	C.3	10	LEU391	0.000	
84	 CD2	34.188	-8.862	5.820	C.3	10	LEU391	0.000	
85	   N	36.983	-8.953	-1.433	N.3	11	ARG394	0.000	
86	  CA	38.179	-9.789	-1.381	C.3	11	ARG394	0.000	
87	   C	37.902	-11.199	-0.842	C.2	11	ARG394	0.000	
88	   O	38.765	-12.077	-0.896	O.2	11	ARG394	0.000	
89	  CB	39.286	-9.085	-0.584	C.3	11	ARG394	0.000	
90	  CG	38.846	-8.457	0.711	C.3	11	ARG394	0.000	
91	  CD	40.018	-7.746	1.372	C.3	11	ARG394	0.000	
92	  NE	39.716	-7.404	2.760	N.pl3	11	ARG394	0.000	
93	  CZ	38.939	-6.396	3.133	C.cat	11	ARG394	0.000	
94	 NH1	38.393	-5.617	2.219	N.pl3	11	ARG394	0.000	
95	 NH2	38.679	-6.193	4.414	N.pl3	11	ARG394	0.000	
96	   N	39.067	-10.998	5.927	N.3	12	PHE404	0.000	
97	  CA	39.220	-9.681	6.546	C.3	12	PHE404	0.000	
98	   C	40.584	-9.141	6.182	C.2	12	PHE404	0.000	
99	   O	40.717	-7.998	5.785	O.2	12	PHE404	0.000	
100	  CB	39.086	-9.777	8.060	C.3	12	PHE404	0.000	
101	  CG	37.665	-9.936	8.533	C.2	12	PHE404	0.000	
102	 CD1	36.837	-8.823	8.701	C.2	12	PHE404	0.000	
103	 CD2	37.148	-11.201	8.808	C.2	12	PHE404	0.000	
104	 CE1	35.516	-8.970	9.139	C.2	12	PHE404	0.000	
105	 CE2	35.822	-11.364	9.249	C.2	12	PHE404	0.000	
106	  CZ	35.009	-10.246	9.415	C.2	12	PHE404	0.000	
107	   N	26.366	-12.099	18.428	N.3	13	GLY420	0.000	
108	  CA	25.802	-11.205	17.438	C.3	13	GLY420	0.000	
109	   C	26.547	-11.136	16.132	C.2	13	GLY420	0.000	
110	   O	26.084	-10.579	15.137	O.2	13	GLY420	0.000	
111	   N	27.709	-11.753	16.142	N.am	14	MET421	0.000	
112	  CA	28.565	-11.663	14.988	C.3	14	MET421	0.000	
113	   C	28.283	-12.711	13.948	C.2	14	MET421	0.000	
114	   O	28.591	-12.473	12.789	O.2	14	MET421	0.000	
115	  CB	30.025	-11.746	15.403	C.3	14	MET421	0.000	
116	  CG	31.024	-11.346	14.318	C.3	14	MET421	0.000	
117	  SD	32.643	-11.552	15.063	S.3	14	MET421	0.000	
118	  CE	32.630	-10.132	16.150	C.3	14	MET421	0.000	
119	   N	25.668	-11.366	11.205	N.3	15	ILE424	0.000	
120	  CA	26.397	-10.443	10.335	C.3	15	ILE424	0.000	
121	   C	27.220	-11.296	9.395	C.2	15	ILE424	0.000	
122	   O	27.061	-11.224	8.186	O.2	15	ILE424	0.000	
123	  CB	27.384	-9.562	11.120	C.3	15	ILE424	0.000	
124	 CG1	26.649	-8.787	12.212	C.3	15	ILE424	0.000	
125	 CG2	28.120	-8.625	10.176	C.3	15	ILE424	0.000	
126	 CD1	25.716	-7.743	11.708	C.3	15	ILE424	0.000	
127	   N	28.099	-12.105	9.973	N.am	16	PHE425	0.000	
128	  CA	28.972	-13.013	9.235	C.3	16	PHE425	0.000	
129	   C	28.242	-13.740	8.120	C.2	16	PHE425	0.000	
130	   O	28.722	-13.820	6.977	O.2	16	PHE425	0.000	
131	  CB	29.542	-14.052	10.190	C.3	16	PHE425	0.000	
132	  CG	31.021	-13.962	10.369	C.2	16	PHE425	0.000	
133	 CD1	31.864	-14.788	9.633	C.2	16	PHE425	0.000	
134	 CD2	31.572	-13.061	11.286	C.2	16	PHE425	0.000	
135	 CE1	33.235	-14.726	9.809	C.2	16	PHE425	0.000	
136	 CE2	32.936	-12.984	11.475	C.2	16	PHE425	0.000	
137	  CZ	33.777	-13.817	10.739	C.2	16	PHE425	0.000	
138	   N	27.362	-11.279	5.319	N.3	17	LEU428	0.000	
139	  CA	28.531	-10.944	4.517	C.3	17	LEU428	0.000	
140	   C	28.844	-12.084	3.584	C.2	17	LEU428	0.000	
141	   O	29.088	-11.881	2.390	O.2	17	LEU428	0.000	
142	  CB	29.747	-10.661	5.405	C.3	17	LEU428	0.000	
143	  CG	29.630	-9.353	6.181	C.3	17	LEU428	0.000	
144	 CD1	30.687	-9.299	7.263	C.3	17	LEU428	0.000	
145	 CD2	29.735	-8.170	5.197	C.3	17	LEU428	0.000	
146	   N	25.401	-3.619	16.728	N.3	18	HIS524	0.000	
147	  CA	26.311	-4.553	17.354	C.3	18	HIS524	0.000	
148	   C	27.468	-3.762	17.925	C.2	18	HIS524	0.000	
149	   O	27.787	-3.893	19.093	O.2	18	HIS524	0.000	
150	  CB	26.795	-5.567	16.306	C.3	18	HIS524	0.000	
151	  CG	27.737	-6.597	16.843	C.2	18	HIS524	0.000	
152	 CD2	27.514	-7.697	17.596	C.2	18	HIS524	0.000	
153	 ND1	29.093	-6.581	16.575	N.2	18	HIS524	0.000	
154	 CE1	29.665	-7.631	17.136	C.2	18	HIS524	0.000	
155	 NE2	28.728	-8.323	17.762	N.pl3	18	HIS524	0.000	
156	   N	28.085	-2.925	17.107	N.am	19	LEU525	0.000	
157	  CA	29.197	-2.142	17.579	C.3	19	LEU525	0.000	
158	   C	28.777	-1.330	18.797	C.2	19	LEU525	0.000	
159	   O	29.540	-1.203	19.748	O.2	19	LEU525	0.000	
160	  CB	29.691	-1.227	16.478	C.3	19	LEU525	0.000	
161	  CG	30.963	-0.503	16.885	C.3	19	LEU525	0.000	
162	 CD1	31.953	-1.500	17.466	C.3	19	LEU525	0.000	
163	 CD2	31.549	0.224	15.673	C.3	19	LEU525	0.000	
@<TRIPOS>BOND
1 1 2 1
2 2 3 1
3 2 5 1
4 3 4 2
5 5 6 1
6 6 7 1
7 7 8 1
8 9 10 1
9 10 11 1
10 10 13 1
11 11 12 2
12 13 14 1
13 14 15 1
14 14 16 1
15 17 18 1
16 18 19 1
17 18 21 1
18 19 20 2
19 19 25 1
20 21 22 1
21 22 23 1
22 22 24 1
23 25 26 1
24 26 27 1
25 26 29 1
26 27 28 2
27 30 31 1
28 31 32 1
29 31 34 1
30 32 33 2
31 34 35 1
32 35 36 1
33 36 37 2
34 36 38 1
35 39 40 1
36 40 41 1
37 40 43 1
38 41 42 2
39 41 53 1
40 43 44 1
41 44 45 2
42 44 46 1
43 45 49 1
44 46 47 2
45 46 48 1
46 47 50 1
47 48 51 2
48 47 49 1
49 50 52 2
50 51 52 1
51 53 54 1
52 54 55 1
53 54 57 1
54 55 56 2
55 57 58 1
56 58 59 1
57 58 60 1
58 61 62 1
59 62 63 1
60 62 65 1
61 63 64 2
62 63 69 1
63 65 66 1
64 66 67 1
65 66 68 1
66 69 70 1
67 70 71 1
68 70 73 1
69 71 72 2
70 73 74 1
71 74 75 1
72 75 76 1
73 77 78 1
74 78 79 1
75 78 81 1
76 79 80 2
77 81 82 1
78 82 83 1
79 82 84 1
80 85 86 1
81 86 87 1
82 86 89 1
83 87 88 2
84 89 90 1
85 90 91 1
86 91 92 1
87 92 93 1
88 93 94 2
89 93 95 1
90 96 97 1
91 97 98 1
92 97 100 1
93 98 99 2
94 100 101 1
95 101 102 2
96 101 103 1
97 102 104 1
98 103 105 2
99 104 106 2
100 105 106 1
101 107 108 1
102 108 109 1
103 109 110 2
104 109 111 1
105 111 112 1
106 112 113 1
107 112 115 1
108 113 114 2
109 115 116 1
110 116 117 1
111 117 118 1
112 119 120 1
113 120 121 1
114 120 123 1
115 121 122 2
116 121 127 1
117 123 124 1
118 123 125 1
119 124 126 1
120 127 128 1
121 128 129 1
122 128 131 1
123 129 130 2
124 131 132 1
125 132 133 2
126 132 134 1
127 133 135 1
128 134 136 2
129 135 137 2
130 136 137 1
131 138 139 1
132 139 140 1
133 139 142 1
134 140 141 2
135 142 143 1
136 143 144 1
137 143 145 1
138 146 147 1
139 147 148 1
140 147 150 1
141 148 149 2
142 148 156 1
143 150 151 1
144 151 152 2
145 151 153 1
146 152 155 1
147 153 154 2
148 154 155 1
149 156 157 1
150 157 158 1
151 157 160 1
152 158 159 2
153 160 161 1
154 161 162 1
155 161 163 1
@<TRIPOS>SUBSTRUCTURE
1	MET343	1	RESIDUE	1 A	MET
2	LEU346	9	RESIDUE	1 A	LEU
3	LEU349	17	RESIDUE	1 A	LEU
4	ALA350	25	RESIDUE	1 A	ALA
5	GLU353	30	RESIDUE	1 A	GLU
6	TRP383	39	RESIDUE	1 A	TRP
7	LEU384	53	RESIDUE	1 A	LEU
8	LEU387	61	RESIDUE	1 A	LEU
9	MET388	69	RESIDUE	1 A	MET
10	LEU391	77	RESIDUE	1 A	LEU
11	ARG394	85	RESIDUE	1 A	ARG
12	PHE404	96	RESIDUE	1 A	PHE
13	GLY420	107	RESIDUE	1 A	GLY
14	MET421	111	RESIDUE	1 A	MET
15	ILE424	119	RESIDUE	1 A	ILE
16	PHE425	127	RESIDUE	1 A	PHE
17	LEU428	138	RESIDUE	1 A	LEU
18	HIS524	146	RESIDUE	1 A	HIS
19	LEU525	156	RESIDUE	1 A	LEU
