# created with PyMOL 2.5.0
@<TRIPOS>MOLECULE
2p15
187 173 23              
SMALL
USER_CHARGES
@<TRIPOS>ATOM
1	   N	-40.550	8.428	12.026	N.3	1	MET342	0.000	
2	  CA	-39.483	8.459	13.000	C.3	1	MET342	0.000	
3	   C	-39.328	7.096	13.690	C.2	1	MET342	0.000	
4	   O	-38.210	6.602	13.837	O.2	1	MET342	0.000	
5	  CB	-39.718	9.563	14.044	C.3	1	MET342	0.000	
6	  CG	-38.606	9.611	15.122	C.3	1	MET342	0.000	
7	  SD	-36.968	9.775	14.351	S.3	1	MET342	0.000	
8	  CE	-37.013	11.523	13.976	C.3	1	MET342	0.000	
9	   N	-40.434	6.481	14.101	N.am	2	MET343	0.000	
10	  CA	-40.321	5.142	14.698	C.3	2	MET343	0.000	
11	   C	-39.753	4.132	13.707	C.2	2	MET343	0.000	
12	   O	-39.002	3.231	14.108	O.2	2	MET343	0.000	
13	  CB	-41.651	4.649	15.261	C.3	2	MET343	0.000	
14	  CG	-42.059	5.262	16.630	C.3	2	MET343	0.000	
15	  SD	-40.862	5.076	17.980	S.3	2	MET343	0.000	
16	  CE	-40.722	3.286	18.213	C.3	2	MET343	0.000	
17	   N	-35.892	4.737	13.514	N.3	3	LEU346	0.000	
18	  CA	-35.217	4.303	14.742	C.3	3	LEU346	0.000	
19	   C	-35.231	2.794	14.876	C.2	3	LEU346	0.000	
20	   O	-34.245	2.235	15.329	O.2	3	LEU346	0.000	
21	  CB	-35.859	4.939	15.969	C.3	3	LEU346	0.000	
22	  CG	-35.707	6.458	16.089	C.3	3	LEU346	0.000	
23	 CD1	-36.196	6.863	17.447	C.3	3	LEU346	0.000	
24	 CD2	-34.254	6.823	15.950	C.3	3	LEU346	0.000	
25	   N	-36.337	2.145	14.515	N.am	4	THR347	0.000	
26	  CA	-36.421	0.680	14.678	C.3	4	THR347	0.000	
27	   C	-35.701	-0.058	13.532	C.2	4	THR347	0.000	
28	   O	-35.185	-1.168	13.727	O.2	4	THR347	0.000	
29	  CB	-37.879	0.172	14.838	C.3	4	THR347	0.000	
30	 CG2	-38.522	0.712	16.151	C.3	4	THR347	0.000	
31	 OG1	-38.671	0.543	13.691	O.3	4	THR347	0.000	
32	   N	-32.969	1.140	12.171	N.3	5	LEU349	0.000	
33	  CA	-31.571	1.277	12.633	C.3	5	LEU349	0.000	
34	   C	-31.245	0.258	13.745	C.2	5	LEU349	0.000	
35	   O	-30.235	-0.452	13.670	O.2	5	LEU349	0.000	
36	  CB	-31.317	2.695	13.165	C.3	5	LEU349	0.000	
37	  CG	-29.933	3.089	13.687	C.3	5	LEU349	0.000	
38	 CD1	-28.906	2.898	12.603	C.3	5	LEU349	0.000	
39	 CD2	-29.912	4.608	14.177	C.3	5	LEU349	0.000	
40	   N	-32.081	0.212	14.779	N.am	6	ALA350	0.000	
41	  CA	-31.878	-0.735	15.901	C.3	6	ALA350	0.000	
42	   C	-31.771	-2.175	15.379	C.2	6	ALA350	0.000	
43	   O	-30.941	-2.948	15.844	O.2	6	ALA350	0.000	
44	  CB	-33.029	-0.623	16.899	C.3	6	ALA350	0.000	
45	   N	-28.391	-2.680	13.723	N.3	7	GLU353	0.000	
46	  CA	-27.383	-2.724	14.781	C.3	7	GLU353	0.000	
47	   C	-27.390	-4.032	15.544	C.2	7	GLU353	0.000	
48	   O	-26.339	-4.511	15.948	O.2	7	GLU353	0.000	
49	  CB	-27.595	-1.568	15.761	C.3	7	GLU353	0.000	
50	  CG	-27.205	-0.221	15.169	C.3	7	GLU353	0.000	
51	  CD	-27.280	0.849	16.221	C.2	7	GLU353	0.000	
52	 OE1	-28.384	1.409	16.439	O.co2	7	GLU353	0.000	
53	 OE2	-26.224	1.104	16.867	O.co2	7	GLU353	0.000	
54	   N	-31.138	-3.699	24.701	N.3	8	LEU384	0.000	
55	  CA	-31.530	-2.281	24.669	C.3	8	LEU384	0.000	
56	   C	-30.574	-1.409	25.522	C.2	8	LEU384	0.000	
57	   O	-30.276	-0.278	25.164	O.2	8	LEU384	0.000	
58	  CB	-32.989	-2.094	25.104	C.3	8	LEU384	0.000	
59	  CG	-33.536	-0.624	24.930	C.3	8	LEU384	0.000	
60	 CD1	-33.315	-0.064	23.514	C.3	8	LEU384	0.000	
61	 CD2	-35.002	-0.603	25.257	C.3	8	LEU384	0.000	
62	   N	-27.622	-1.000	23.168	N.3	9	LEU387	0.000	
63	  CA	-27.959	0.078	22.207	C.3	9	LEU387	0.000	
64	   C	-27.880	1.455	22.861	C.2	9	LEU387	0.000	
65	   O	-27.325	2.383	22.273	O.2	9	LEU387	0.000	
66	  CB	-29.360	-0.111	21.532	C.3	9	LEU387	0.000	
67	  CG	-29.512	-1.320	20.586	C.3	9	LEU387	0.000	
68	 CD1	-30.911	-1.223	19.917	C.3	9	LEU387	0.000	
69	 CD2	-28.463	-1.276	19.500	C.3	9	LEU387	0.000	
70	   N	-28.461	1.608	24.057	N.am	10	MET388	0.000	
71	  CA	-28.459	2.925	24.718	C.3	10	MET388	0.000	
72	   C	-27.101	3.428	25.118	C.2	10	MET388	0.000	
73	   O	-26.829	4.624	24.964	O.2	10	MET388	0.000	
74	  CB	-29.393	2.940	25.934	C.3	10	MET388	0.000	
75	  CG	-30.850	2.861	25.535	C.3	10	MET388	0.000	
76	  SD	-31.968	2.702	26.965	S.3	10	MET388	0.000	
77	  CE	-33.506	3.233	26.219	C.3	10	MET388	0.000	
78	   N	-25.503	4.702	22.059	N.3	11	LEU391	0.000	
79	  CA	-26.102	5.995	21.697	C.3	11	LEU391	0.000	
80	   C	-25.561	7.166	22.556	C.2	11	LEU391	0.000	
81	   O	-25.186	8.214	22.035	O.2	11	LEU391	0.000	
82	  CB	-27.628	5.926	21.851	C.3	11	LEU391	0.000	
83	  CG	-28.369	7.263	21.687	C.3	11	LEU391	0.000	
84	 CD1	-28.191	7.833	20.270	C.3	11	LEU391	0.000	
85	 CD2	-29.866	7.102	22.022	C.3	11	LEU391	0.000	
86	   N	-21.935	7.923	21.547	N.3	12	ARG394	0.000	
87	  CA	-21.867	8.700	20.274	C.3	12	ARG394	0.000	
88	   C	-22.287	10.158	20.483	C.2	12	ARG394	0.000	
89	   O	-21.791	11.067	19.788	O.2	12	ARG394	0.000	
90	  CB	-22.805	8.083	19.223	C.3	12	ARG394	0.000	
91	  CG	-22.332	6.735	18.734	C.3	12	ARG394	0.000	
92	  CD	-23.077	6.296	17.484	C.3	12	ARG394	0.000	
93	  NE	-24.519	6.146	17.638	N.pl3	12	ARG394	0.000	
94	  CZ	-25.153	5.056	18.104	C.cat	12	ARG394	0.000	
95	 NH1	-24.496	4.009	18.587	N.pl3	12	ARG394	0.000	
96	 NH2	-26.486	5.032	18.126	N.pl3	12	ARG394	0.000	
97	   N	-29.027	13.810	20.568	N.3	13	LEU402	0.000	
98	  CA	-28.817	12.372	20.537	C.3	13	LEU402	0.000	
99	   C	-28.450	12.003	19.117	C.2	13	LEU402	0.000	
100	   O	-29.224	12.220	18.174	O.2	13	LEU402	0.000	
101	  CB	-30.076	11.613	20.975	C.3	13	LEU402	0.000	
102	  CG	-30.458	11.764	22.454	C.3	13	LEU402	0.000	
103	 CD1	-31.738	10.982	22.774	C.3	13	LEU402	0.000	
104	 CD2	-29.320	11.303	23.377	C.3	13	LEU402	0.000	
105	   N	-28.261	9.377	16.954	N.3	14	PHE404	0.000	
106	  CA	-28.659	7.995	16.618	C.3	14	PHE404	0.000	
107	   C	-27.782	7.432	15.498	C.2	14	PHE404	0.000	
108	   O	-27.347	6.269	15.527	O.2	14	PHE404	0.000	
109	  CB	-30.151	7.961	16.252	C.3	14	PHE404	0.000	
110	  CG	-31.059	8.067	17.473	C.2	14	PHE404	0.000	
111	 CD1	-31.372	6.917	18.218	C.2	14	PHE404	0.000	
112	 CD2	-31.539	9.311	17.905	C.2	14	PHE404	0.000	
113	 CE1	-32.178	6.994	19.349	C.2	14	PHE404	0.000	
114	 CE2	-32.364	9.401	19.074	C.2	14	PHE404	0.000	
115	  CZ	-32.664	8.249	19.778	C.2	14	PHE404	0.000	
116	   N	-30.899	14.136	16.724	N.3	15	LEU410	0.000	
117	  CA	-32.156	14.671	17.234	C.3	15	LEU410	0.000	
118	   C	-31.957	15.612	18.435	C.2	15	LEU410	0.000	
119	   O	-31.144	15.350	19.308	O.2	15	LEU410	0.000	
120	  CB	-33.126	13.528	17.604	C.3	15	LEU410	0.000	
121	  CG	-33.505	12.503	16.533	C.3	15	LEU410	0.000	
122	 CD1	-34.601	11.596	17.102	C.3	15	LEU410	0.000	
123	 CD2	-33.942	13.170	15.247	C.3	15	LEU410	0.000	
124	   N	-43.124	11.762	18.117	N.3	16	VAL418	0.000	
125	  CA	-43.492	10.476	18.726	C.3	16	VAL418	0.000	
126	   C	-44.045	10.672	20.153	C.2	16	VAL418	0.000	
127	   O	-43.390	11.289	20.993	O.2	16	VAL418	0.000	
128	  CB	-42.260	9.525	18.767	C.3	16	VAL418	0.000	
129	 CG1	-42.589	8.251	19.506	C.3	16	VAL418	0.000	
130	 CG2	-41.751	9.256	17.348	C.3	16	VAL418	0.000	
131	   N	-42.174	9.632	24.542	N.3	17	MET421	0.000	
132	  CA	-40.739	9.405	24.638	C.3	17	MET421	0.000	
133	   C	-39.898	10.550	25.219	C.2	17	MET421	0.000	
134	   O	-38.686	10.438	25.292	O.2	17	MET421	0.000	
135	  CB	-40.193	8.959	23.278	C.3	17	MET421	0.000	
136	  CG	-40.453	9.933	22.176	C.3	17	MET421	0.000	
137	  SD	-39.692	11.539	22.452	S.3	17	MET421	0.000	
138	  CE	-40.190	12.381	20.937	C.3	17	MET421	0.000	
139	   N	-37.792	9.538	28.284	N.3	18	ILE424	0.000	
140	  CA	-36.666	8.676	27.897	C.3	18	ILE424	0.000	
141	   C	-35.599	9.530	27.204	C.2	18	ILE424	0.000	
142	   O	-34.437	9.424	27.527	O.2	18	ILE424	0.000	
143	  CB	-37.111	7.489	27.014	C.3	18	ILE424	0.000	
144	 CG1	-38.071	6.576	27.801	C.3	18	ILE424	0.000	
145	 CG2	-35.878	6.687	26.515	C.3	18	ILE424	0.000	
146	 CD1	-38.943	5.669	26.875	C.3	18	ILE424	0.000	
147	   N	-36.022	10.409	26.285	N.am	19	PHE425	0.000	
148	  CA	-35.122	11.363	25.649	C.3	19	PHE425	0.000	
149	   C	-34.275	12.148	26.687	C.2	19	PHE425	0.000	
150	   O	-33.042	12.229	26.571	O.2	19	PHE425	0.000	
151	  CB	-35.926	12.358	24.785	C.3	19	PHE425	0.000	
152	  CG	-35.104	13.016	23.707	C.2	19	PHE425	0.000	
153	 CD1	-35.341	12.739	22.375	C.2	19	PHE425	0.000	
154	 CD2	-34.080	13.876	24.029	C.2	19	PHE425	0.000	
155	 CE1	-34.584	13.332	21.371	C.2	19	PHE425	0.000	
156	 CE2	-33.300	14.449	23.049	C.2	19	PHE425	0.000	
157	  CZ	-33.548	14.175	21.713	C.2	19	PHE425	0.000	
158	   N	-31.658	9.965	28.526	N.3	20	LEU428	0.000	
159	  CA	-30.517	9.650	27.642	C.3	20	LEU428	0.000	
160	   C	-29.572	10.822	27.562	C.2	20	LEU428	0.000	
161	   O	-28.345	10.651	27.633	O.2	20	LEU428	0.000	
162	  CB	-31.028	9.264	26.239	C.3	20	LEU428	0.000	
163	  CG	-31.624	7.846	26.201	C.3	20	LEU428	0.000	
164	 CD1	-32.370	7.607	24.899	C.3	20	LEU428	0.000	
165	 CD2	-30.524	6.795	26.316	C.3	20	LEU428	0.000	
166	   N	-37.670	2.282	28.049	N.3	21	GLY521	0.000	
167	  CA	-37.662	2.171	26.603	C.3	21	GLY521	0.000	
168	   C	-38.380	0.918	26.104	C.2	21	GLY521	0.000	
169	   O	-39.020	0.960	25.061	O.2	21	GLY521	0.000	
170	   N	-42.006	1.558	26.212	N.3	22	HIS524	0.000	
171	  CA	-42.383	2.507	25.129	C.3	22	HIS524	0.000	
172	   C	-42.481	1.795	23.776	C.2	22	HIS524	0.000	
173	   O	-43.459	1.979	23.023	O.2	22	HIS524	0.000	
174	  CB	-41.398	3.677	25.011	C.3	22	HIS524	0.000	
175	  CG	-41.753	4.638	23.910	C.2	22	HIS524	0.000	
176	 CD2	-42.662	5.642	23.863	C.2	22	HIS524	0.000	
177	 ND1	-41.174	4.586	22.662	N.2	22	HIS524	0.000	
178	 CE1	-41.687	5.540	21.900	C.2	22	HIS524	0.000	
179	 NE2	-42.606	6.185	22.604	N.pl3	22	HIS524	0.000	
180	   N	-41.461	1.011	23.460	N.am	23	LEU525	0.000	
181	  CA	-41.456	0.203	22.225	C.3	23	LEU525	0.000	
182	   C	-42.663	-0.738	22.129	C.2	23	LEU525	0.000	
183	   O	-43.268	-0.881	21.044	O.2	23	LEU525	0.000	
184	  CB	-40.158	-0.608	22.110	C.3	23	LEU525	0.000	
185	  CG	-39.971	-1.398	20.810	C.3	23	LEU525	0.000	
186	 CD1	-40.161	-0.506	19.551	C.3	23	LEU525	0.000	
187	 CD2	-38.602	-2.062	20.847	C.3	23	LEU525	0.000	
@<TRIPOS>BOND
1 1 2 1
2 2 3 1
3 2 5 1
4 3 4 2
5 3 9 1
6 5 6 1
7 6 7 1
8 7 8 1
9 9 10 1
10 10 11 1
11 10 13 1
12 11 12 2
13 13 14 1
14 14 15 1
15 15 16 1
16 17 18 1
17 18 19 1
18 18 21 1
19 19 20 2
20 19 25 1
21 21 22 1
22 22 23 1
23 22 24 1
24 25 26 1
25 26 27 1
26 26 29 1
27 27 28 2
28 29 30 1
29 29 31 1
30 32 33 1
31 33 34 1
32 33 36 1
33 34 35 2
34 34 40 1
35 36 37 1
36 37 38 1
37 37 39 1
38 40 41 1
39 41 42 1
40 41 44 1
41 42 43 2
42 45 46 1
43 46 47 1
44 46 49 1
45 47 48 2
46 49 50 1
47 50 51 1
48 51 52 2
49 51 53 1
50 54 55 1
51 55 56 1
52 55 58 1
53 56 57 2
54 58 59 1
55 59 60 1
56 59 61 1
57 62 63 1
58 63 64 1
59 63 66 1
60 64 65 2
61 64 70 1
62 66 67 1
63 67 68 1
64 67 69 1
65 70 71 1
66 71 72 1
67 71 74 1
68 72 73 2
69 74 75 1
70 75 76 1
71 76 77 1
72 78 79 1
73 79 80 1
74 79 82 1
75 80 81 2
76 82 83 1
77 83 84 1
78 83 85 1
79 86 87 1
80 87 88 1
81 87 90 1
82 88 89 2
83 90 91 1
84 91 92 1
85 92 93 1
86 93 94 1
87 94 95 2
88 94 96 1
89 97 98 1
90 98 99 1
91 98 101 1
92 99 100 2
93 101 102 1
94 102 103 1
95 102 104 1
96 105 106 1
97 106 107 1
98 106 109 1
99 107 108 2
100 109 110 1
101 110 111 2
102 110 112 1
103 111 113 1
104 112 114 2
105 113 115 2
106 114 115 1
107 116 117 1
108 117 118 1
109 117 120 1
110 118 119 2
111 120 121 1
112 121 122 1
113 121 123 1
114 124 125 1
115 125 126 1
116 125 128 1
117 126 127 2
118 128 129 1
119 128 130 1
120 131 132 1
121 132 133 1
122 132 135 1
123 133 134 2
124 135 136 1
125 136 137 1
126 137 138 1
127 139 140 1
128 140 141 1
129 140 143 1
130 141 142 2
131 141 147 1
132 143 144 1
133 143 145 1
134 144 146 1
135 147 148 1
136 148 149 1
137 148 151 1
138 149 150 2
139 151 152 1
140 152 153 2
141 152 154 1
142 153 155 1
143 154 156 2
144 155 157 2
145 156 157 1
146 158 159 1
147 159 160 1
148 159 162 1
149 160 161 2
150 162 163 1
151 163 164 1
152 163 165 1
153 166 167 1
154 167 168 1
155 168 169 2
156 170 171 1
157 171 172 1
158 171 174 1
159 172 173 2
160 172 180 1
161 174 175 1
162 175 176 2
163 175 177 1
164 176 179 1
165 177 178 2
166 178 179 1
167 180 181 1
168 181 182 1
169 181 184 1
170 182 183 2
171 184 185 1
172 185 186 1
173 185 187 1
@<TRIPOS>SUBSTRUCTURE
1	MET342	1	RESIDUE	1 A	MET
2	MET343	9	RESIDUE	1 A	MET
3	LEU346	17	RESIDUE	1 A	LEU
4	THR347	25	RESIDUE	1 A	THR
5	LEU349	32	RESIDUE	1 A	LEU
6	ALA350	40	RESIDUE	1 A	ALA
7	GLU353	45	RESIDUE	1 A	GLU
8	LEU384	54	RESIDUE	1 A	LEU
9	LEU387	62	RESIDUE	1 A	LEU
10	MET388	70	RESIDUE	1 A	MET
11	LEU391	78	RESIDUE	1 A	LEU
12	ARG394	86	RESIDUE	1 A	ARG
13	LEU402	97	RESIDUE	1 A	LEU
14	PHE404	105	RESIDUE	1 A	PHE
15	LEU410	116	RESIDUE	1 A	LEU
16	VAL418	124	RESIDUE	1 A	VAL
17	MET421	131	RESIDUE	1 A	MET
18	ILE424	139	RESIDUE	1 A	ILE
19	PHE425	147	RESIDUE	1 A	PHE
20	LEU428	158	RESIDUE	1 A	LEU
21	GLY521	166	RESIDUE	1 A	GLY
22	HIS524	170	RESIDUE	1 A	HIS
23	LEU525	180	RESIDUE	1 A	LEU
