# created with PyMOL 2.5.0
@<TRIPOS>MOLECULE
2q70
163 153 20              
SMALL
USER_CHARGES
@<TRIPOS>ATOM
1	   N	15.995	58.490	57.762	N.3	1	MET343	0.000	
2	  CA	15.893	57.622	58.932	C.3	1	MET343	0.000	
3	   C	15.236	58.354	60.103	C.2	1	MET343	0.000	
4	   O	14.575	57.745	60.947	O.2	1	MET343	0.000	
5	  CB	17.287	57.128	59.338	C.3	1	MET343	0.000	
6	  CG	17.311	56.143	60.517	C.3	1	MET343	0.000	
7	  SD	16.381	54.598	60.232	S.3	1	MET343	0.000	
8	  CE	17.081	54.054	58.727	C.3	1	MET343	0.000	
9	   N	11.634	58.193	59.573	N.3	2	LEU346	0.000	
10	  CA	11.182	56.848	59.910	C.3	2	LEU346	0.000	
11	   C	11.085	56.585	61.413	C.2	2	LEU346	0.000	
12	   O	10.076	56.057	61.896	O.2	2	LEU346	0.000	
13	  CB	12.098	55.810	59.252	C.3	2	LEU346	0.000	
14	  CG	12.065	55.852	57.724	C.3	2	LEU346	0.000	
15	 CD1	13.086	54.882	57.140	C.3	2	LEU346	0.000	
16	 CD2	10.663	55.500	57.256	C.3	2	LEU346	0.000	
17	   N	12.120	56.948	62.162	N.am	3	THR347	0.000	
18	  CA	12.081	56.721	63.600	C.3	3	THR347	0.000	
19	   C	11.054	57.623	64.271	C.2	3	THR347	0.000	
20	   O	10.336	57.186	65.172	O.2	3	THR347	0.000	
21	  CB	13.465	56.931	64.260	C.3	3	THR347	0.000	
22	 CG2	14.468	55.931	63.713	C.3	3	THR347	0.000	
23	 OG1	13.936	58.254	63.990	O.3	3	THR347	0.000	
24	   N	8.318	58.700	62.980	N.3	4	LEU349	0.000	
25	  CA	7.047	58.069	62.692	C.3	4	LEU349	0.000	
26	   C	6.799	56.881	63.621	C.2	4	LEU349	0.000	
27	   O	5.737	56.761	64.236	O.2	4	LEU349	0.000	
28	  CB	7.013	57.622	61.230	C.3	4	LEU349	0.000	
29	  CG	5.785	56.799	60.835	C.3	4	LEU349	0.000	
30	 CD1	4.543	57.637	61.029	C.3	4	LEU349	0.000	
31	 CD2	5.903	56.353	59.385	C.3	4	LEU349	0.000	
32	   N	7.787	56.002	63.733	N.am	5	ALA350	0.000	
33	  CA	7.665	54.857	64.630	C.3	5	ALA350	0.000	
34	   C	7.431	55.284	66.068	C.2	5	ALA350	0.000	
35	   O	6.623	54.679	66.773	O.2	5	ALA350	0.000	
36	  CB	8.920	53.973	64.538	C.3	5	ALA350	0.000	
37	   N	3.797	56.170	66.422	N.3	6	GLU353	0.000	
38	  CA	2.939	54.985	66.359	C.3	6	GLU353	0.000	
39	   C	2.973	54.179	67.653	C.2	6	GLU353	0.000	
40	   O	1.996	53.523	68.022	O.2	6	GLU353	0.000	
41	  CB	3.363	54.077	65.204	C.3	6	GLU353	0.000	
42	  CG	2.981	54.587	63.834	C.3	6	GLU353	0.000	
43	  CD	3.457	53.661	62.741	C.2	6	GLU353	0.000	
44	 OE1	4.580	53.867	62.249	O.co2	6	GLU353	0.000	
45	 OE2	2.714	52.723	62.384	O.co2	6	GLU353	0.000	
46	   N	7.173	45.130	69.687	N.3	7	TRP383	0.000	
47	  CA	6.784	46.400	69.047	C.3	7	TRP383	0.000	
48	   C	7.253	46.535	67.593	C.2	7	TRP383	0.000	
49	   O	6.514	47.037	66.762	O.2	7	TRP383	0.000	
50	  CB	7.286	47.614	69.845	C.3	7	TRP383	0.000	
51	  CG	8.774	47.776	69.835	C.2	7	TRP383	0.000	
52	 CD1	9.656	47.208	70.696	C.2	7	TRP383	0.000	
53	 CD2	9.554	48.583	68.934	C.2	7	TRP383	0.000	
54	 CE2	10.901	48.453	69.320	C.2	7	TRP383	0.000	
55	 CE3	9.242	49.401	67.844	C.2	7	TRP383	0.000	
56	 NE1	10.936	47.609	70.395	N.pl3	7	TRP383	0.000	
57	 CZ2	11.939	49.108	68.653	C.2	7	TRP383	0.000	
58	 CZ3	10.275	50.052	67.182	C.2	7	TRP383	0.000	
59	 CH2	11.605	49.903	67.589	C.2	7	TRP383	0.000	
60	   N	8.471	46.115	67.258	N.am	8	LEU384	0.000	
61	  CA	8.927	46.326	65.884	C.3	8	LEU384	0.000	
62	   C	8.244	45.350	64.927	C.2	8	LEU384	0.000	
63	   O	8.002	45.683	63.772	O.2	8	LEU384	0.000	
64	  CB	10.453	46.196	65.770	C.3	8	LEU384	0.000	
65	  CG	11.031	46.386	64.356	C.3	8	LEU384	0.000	
66	 CD1	10.468	47.652	63.713	C.3	8	LEU384	0.000	
67	 CD2	12.547	46.480	64.433	C.3	8	LEU384	0.000	
68	   N	4.816	46.923	64.262	N.3	9	LEU387	0.000	
69	  CA	4.962	47.964	63.269	C.3	9	LEU387	0.000	
70	   C	5.197	47.400	61.885	C.2	9	LEU387	0.000	
71	   O	4.627	47.888	60.912	O.2	9	LEU387	0.000	
72	  CB	6.114	48.900	63.621	C.3	9	LEU387	0.000	
73	  CG	5.963	49.802	64.852	C.3	9	LEU387	0.000	
74	 CD1	7.199	50.690	64.936	C.3	9	LEU387	0.000	
75	 CD2	4.695	50.653	64.742	C.3	9	LEU387	0.000	
76	   N	6.033	46.372	61.794	N.am	10	MET388	0.000	
77	  CA	6.384	45.822	60.502	C.3	10	MET388	0.000	
78	   C	5.212	45.098	59.841	C.2	10	MET388	0.000	
79	   O	5.003	45.238	58.638	O.2	10	MET388	0.000	
80	  CB	7.584	44.872	60.638	C.3	10	MET388	0.000	
81	  CG	8.911	45.586	60.832	C.3	10	MET388	0.000	
82	  SD	10.320	44.446	60.913	S.3	10	MET388	0.000	
83	  CE	11.700	45.587	60.704	C.3	10	MET388	0.000	
84	   N	3.021	47.746	58.432	N.3	11	LEU391	0.000	
85	  CA	3.596	48.268	57.197	C.3	11	LEU391	0.000	
86	   C	3.400	47.316	56.022	C.2	11	LEU391	0.000	
87	   O	3.115	47.739	54.906	O.2	11	LEU391	0.000	
88	  CB	5.094	48.537	57.386	C.3	11	LEU391	0.000	
89	  CG	5.902	48.980	56.166	C.3	11	LEU391	0.000	
90	 CD1	5.391	50.339	55.658	C.3	11	LEU391	0.000	
91	 CD2	7.377	49.077	56.546	C.3	11	LEU391	0.000	
92	   N	-0.325	47.480	54.887	N.3	12	ARG394	0.000	
93	  CA	-0.723	48.635	54.093	C.3	12	ARG394	0.000	
94	   C	0.081	48.789	52.805	C.2	12	ARG394	0.000	
95	   O	-0.254	49.613	51.955	O.2	12	ARG394	0.000	
96	  CB	-0.674	49.934	54.909	C.3	12	ARG394	0.000	
97	  CG	0.339	50.019	56.016	C.3	12	ARG394	0.000	
98	  CD	0.213	51.342	56.789	C.3	12	ARG394	0.000	
99	  NE	1.527	51.850	57.184	N.pl3	12	ARG394	0.000	
100	  CZ	2.129	51.528	58.323	C.cat	12	ARG394	0.000	
101	 NH1	1.532	50.706	59.167	N.pl3	12	ARG394	0.000	
102	 NH2	3.317	52.036	58.622	N.pl3	12	ARG394	0.000	
103	   N	5.106	53.424	54.364	N.3	13	PHE404	0.000	
104	  CA	5.376	53.726	55.762	C.3	13	PHE404	0.000	
105	   C	4.315	54.693	56.276	C.2	13	PHE404	0.000	
106	   O	3.871	54.588	57.423	O.2	13	PHE404	0.000	
107	  CB	6.764	54.341	55.910	C.3	13	PHE404	0.000	
108	  CG	7.885	53.373	55.651	C.2	13	PHE404	0.000	
109	 CD1	8.359	52.557	56.674	C.2	13	PHE404	0.000	
110	 CD2	8.464	53.277	54.394	C.2	13	PHE404	0.000	
111	 CE1	9.382	51.666	56.446	C.2	13	PHE404	0.000	
112	 CE2	9.494	52.383	54.153	C.2	13	PHE404	0.000	
113	  CZ	9.955	51.575	55.185	C.2	13	PHE404	0.000	
114	   N	22.611	50.846	54.735	N.3	14	GLY420	0.000	
115	  CA	22.320	49.506	55.222	C.3	14	GLY420	0.000	
116	   C	20.870	49.139	55.539	C.2	14	GLY420	0.000	
117	   O	20.639	48.318	56.435	O.2	14	GLY420	0.000	
118	   N	19.894	49.712	54.834	N.am	15	MET421	0.000	
119	  CA	18.506	49.371	55.117	C.3	15	MET421	0.000	
120	   C	17.885	48.543	54.000	C.2	15	MET421	0.000	
121	   O	16.819	47.964	54.167	O.2	15	MET421	0.000	
122	  CB	17.694	50.645	55.376	C.3	15	MET421	0.000	
123	  CG	16.811	51.071	54.248	C.3	15	MET421	0.000	
124	  SD	15.803	52.539	54.650	S.3	15	MET421	0.000	
125	  CE	14.273	51.793	55.084	C.3	15	MET421	0.000	
126	   N	16.562	44.772	54.607	N.3	16	ILE424	0.000	
127	  CA	15.300	44.727	55.335	C.3	16	ILE424	0.000	
128	   C	14.165	45.142	54.406	C.2	16	ILE424	0.000	
129	   O	13.097	44.537	54.401	O.2	16	ILE424	0.000	
130	  CB	15.302	45.706	56.530	C.3	16	ILE424	0.000	
131	 CG1	16.573	45.536	57.355	C.3	16	ILE424	0.000	
132	 CG2	14.085	45.447	57.409	C.3	16	ILE424	0.000	
133	 CD1	16.648	44.229	58.036	C.3	16	ILE424	0.000	
134	   N	10.840	43.054	53.558	N.3	17	LEU428	0.000	
135	  CA	9.511	43.585	53.842	C.3	17	LEU428	0.000	
136	   C	8.673	43.518	52.569	C.2	17	LEU428	0.000	
137	   O	7.499	43.143	52.613	O.2	17	LEU428	0.000	
138	  CB	9.607	45.024	54.354	C.3	17	LEU428	0.000	
139	  CG	10.114	45.144	55.795	C.3	17	LEU428	0.000	
140	 CD1	10.628	46.565	56.075	C.3	17	LEU428	0.000	
141	 CD2	8.999	44.755	56.755	C.3	17	LEU428	0.000	
142	   N	16.069	44.572	62.099	N.3	18	GLY521	0.000	
143	  CA	15.759	45.971	62.309	C.3	18	GLY521	0.000	
144	   C	16.361	46.474	63.602	C.2	18	GLY521	0.000	
145	   O	16.893	47.584	63.650	O.2	18	GLY521	0.000	
146	   N	20.088	47.139	63.160	N.3	19	HIS524	0.000	
147	  CA	20.247	48.356	62.377	C.3	19	HIS524	0.000	
148	   C	19.985	49.584	63.222	C.2	19	HIS524	0.000	
149	   O	20.632	50.615	63.070	O.2	19	HIS524	0.000	
150	  CB	19.278	48.347	61.192	C.3	19	HIS524	0.000	
151	  CG	19.502	49.460	60.215	C.2	19	HIS524	0.000	
152	 CD2	20.642	50.040	59.771	C.2	19	HIS524	0.000	
153	 ND1	18.472	50.078	59.542	N.2	19	HIS524	0.000	
154	 CE1	18.965	50.990	58.723	C.2	19	HIS524	0.000	
155	 NE2	20.280	50.988	58.843	N.pl3	19	HIS524	0.000	
156	   N	19.029	49.450	64.129	N.am	20	LEU525	0.000	
157	  CA	18.630	50.538	65.006	C.3	20	LEU525	0.000	
158	   C	19.662	50.676	66.117	C.2	20	LEU525	0.000	
159	   O	20.054	51.781	66.487	O.2	20	LEU525	0.000	
160	  CB	17.247	50.244	65.610	C.3	20	LEU525	0.000	
161	  CG	16.427	51.405	66.177	C.3	20	LEU525	0.000	
162	 CD1	16.108	52.380	65.062	C.3	20	LEU525	0.000	
163	 CD2	15.144	50.866	66.803	C.3	20	LEU525	0.000	
@<TRIPOS>BOND
1 1 2 1
2 2 3 1
3 2 5 1
4 3 4 2
5 5 6 1
6 6 7 1
7 7 8 1
8 9 10 1
9 10 11 1
10 10 13 1
11 11 12 2
12 11 17 1
13 13 14 1
14 14 15 1
15 14 16 1
16 17 18 1
17 18 19 1
18 18 21 1
19 19 20 2
20 21 22 1
21 21 23 1
22 24 25 1
23 25 26 1
24 25 28 1
25 26 27 2
26 26 32 1
27 28 29 1
28 29 30 1
29 29 31 1
30 32 33 1
31 33 34 1
32 33 36 1
33 34 35 2
34 37 38 1
35 38 39 1
36 38 41 1
37 39 40 2
38 41 42 1
39 42 43 1
40 43 44 2
41 43 45 1
42 46 47 1
43 47 48 1
44 47 50 1
45 48 49 2
46 48 60 1
47 50 51 1
48 51 52 2
49 51 53 1
50 52 56 1
51 53 54 2
52 53 55 1
53 54 57 1
54 55 58 2
55 54 56 1
56 57 59 2
57 58 59 1
58 60 61 1
59 61 62 1
60 61 64 1
61 62 63 2
62 64 65 1
63 65 66 1
64 65 67 1
65 68 69 1
66 69 70 1
67 69 72 1
68 70 71 2
69 70 76 1
70 72 73 1
71 73 74 1
72 73 75 1
73 76 77 1
74 77 78 1
75 77 80 1
76 78 79 2
77 80 81 1
78 81 82 1
79 82 83 1
80 84 85 1
81 85 86 1
82 85 88 1
83 86 87 2
84 88 89 1
85 89 90 1
86 89 91 1
87 92 93 1
88 93 94 1
89 93 96 1
90 94 95 2
91 96 97 1
92 97 98 1
93 98 99 1
94 99 100 1
95 100 101 2
96 100 102 1
97 103 104 1
98 104 105 1
99 104 107 1
100 105 106 2
101 107 108 1
102 108 109 2
103 108 110 1
104 109 111 1
105 110 112 2
106 111 113 2
107 112 113 1
108 114 115 1
109 115 116 1
110 116 117 2
111 116 118 1
112 118 119 1
113 119 120 1
114 119 122 1
115 120 121 2
116 122 123 1
117 123 124 1
118 124 125 1
119 126 127 1
120 127 128 1
121 127 130 1
122 128 129 2
123 130 131 1
124 130 132 1
125 131 133 1
126 134 135 1
127 135 136 1
128 135 138 1
129 136 137 2
130 138 139 1
131 139 140 1
132 139 141 1
133 142 143 1
134 143 144 1
135 144 145 2
136 146 147 1
137 147 148 1
138 147 150 1
139 148 149 2
140 148 156 1
141 150 151 1
142 151 152 2
143 151 153 1
144 152 155 1
145 153 154 2
146 154 155 1
147 156 157 1
148 157 158 1
149 157 160 1
150 158 159 2
151 160 161 1
152 161 162 1
153 161 163 1
@<TRIPOS>SUBSTRUCTURE
1	MET343	1	RESIDUE	1 A	MET
2	LEU346	9	RESIDUE	1 A	LEU
3	THR347	17	RESIDUE	1 A	THR
4	LEU349	24	RESIDUE	1 A	LEU
5	ALA350	32	RESIDUE	1 A	ALA
6	GLU353	37	RESIDUE	1 A	GLU
7	TRP383	46	RESIDUE	1 A	TRP
8	LEU384	60	RESIDUE	1 A	LEU
9	LEU387	68	RESIDUE	1 A	LEU
10	MET388	76	RESIDUE	1 A	MET
11	LEU391	84	RESIDUE	1 A	LEU
12	ARG394	92	RESIDUE	1 A	ARG
13	PHE404	103	RESIDUE	1 A	PHE
14	GLY420	114	RESIDUE	1 A	GLY
15	MET421	118	RESIDUE	1 A	MET
16	ILE424	126	RESIDUE	1 A	ILE
17	LEU428	134	RESIDUE	1 A	LEU
18	GLY521	142	RESIDUE	1 A	GLY
19	HIS524	146	RESIDUE	1 A	HIS
20	LEU525	156	RESIDUE	1 A	LEU
