# created with PyMOL 2.5.0
@<TRIPOS>MOLECULE
2qtu
179 166 22              
SMALL
USER_CHARGES
@<TRIPOS>ATOM
1	   N	76.431	48.558	71.948	N.3	1	MET295	0.000	
2	  CA	77.629	47.738	71.905	C.3	1	MET295	0.000	
3	   C	78.231	47.503	73.291	C.2	1	MET295	0.000	
4	   O	78.911	46.501	73.534	O.2	1	MET295	0.000	
5	  CB	78.640	48.388	70.974	C.3	1	MET295	0.000	
6	  CG	78.068	48.456	69.560	C.3	1	MET295	0.000	
7	  SD	77.373	46.868	69.019	S.3	1	MET295	0.000	
8	  CE	78.842	45.956	68.748	C.3	1	MET295	0.000	
9	   N	75.771	44.704	74.748	N.3	2	LEU298	0.000	
10	  CA	76.002	43.409	74.126	C.3	2	LEU298	0.000	
11	   C	77.286	42.795	74.670	C.2	2	LEU298	0.000	
12	   O	77.328	41.595	74.999	O.2	2	LEU298	0.000	
13	  CB	76.078	43.538	72.595	C.3	2	LEU298	0.000	
14	  CG	74.768	43.839	71.864	C.3	2	LEU298	0.000	
15	 CD1	75.080	44.059	70.394	C.3	2	LEU298	0.000	
16	 CD2	73.767	42.701	72.061	C.3	2	LEU298	0.000	
17	   N	78.332	43.614	74.787	N.am	3	THR299	0.000	
18	  CA	79.600	43.108	75.294	C.3	3	THR299	0.000	
19	   C	79.525	42.738	76.769	C.2	3	THR299	0.000	
20	   O	80.113	41.755	77.203	O.2	3	THR299	0.000	
21	  CB	80.737	44.125	75.111	C.3	3	THR299	0.000	
22	 CG2	80.973	44.387	73.641	C.3	3	THR299	0.000	
23	 OG1	80.405	45.345	75.772	O.3	3	THR299	0.000	
24	   N	77.079	41.625	78.324	N.3	4	LEU301	0.000	
25	  CA	76.297	40.392	78.337	C.3	4	LEU301	0.000	
26	   C	77.158	39.211	77.923	C.2	4	LEU301	0.000	
27	   O	77.199	38.204	78.617	O.2	4	LEU301	0.000	
28	  CB	75.114	40.518	77.379	C.3	4	LEU301	0.000	
29	  CG	74.190	39.312	77.253	C.3	4	LEU301	0.000	
30	 CD1	73.485	39.088	78.571	C.3	4	LEU301	0.000	
31	 CD2	73.183	39.552	76.150	C.3	4	LEU301	0.000	
32	   N	77.855	39.327	76.799	N.am	5	ALA302	0.000	
33	  CA	78.624	38.193	76.311	C.3	5	ALA302	0.000	
34	   C	79.578	37.727	77.382	C.2	5	ALA302	0.000	
35	   O	79.730	36.522	77.624	O.2	5	ALA302	0.000	
36	  CB	79.400	38.556	75.084	C.3	5	ALA302	0.000	
37	   N	77.725	35.818	79.905	N.3	6	GLU305	0.000	
38	  CA	77.214	34.557	79.390	C.3	6	GLU305	0.000	
39	   C	78.322	33.524	79.261	C.2	6	GLU305	0.000	
40	   O	78.093	32.332	79.453	O.2	6	GLU305	0.000	
41	  CB	76.539	34.769	78.030	C.3	6	GLU305	0.000	
42	  CG	75.176	35.455	78.115	C.3	6	GLU305	0.000	
43	  CD	74.465	35.552	76.773	C.2	6	GLU305	0.000	
44	 OE1	73.426	34.888	76.591	O.co2	6	GLU305	0.000	
45	 OE2	74.940	36.299	75.895	O.co2	6	GLU305	0.000	
46	   N	81.084	32.063	70.338	N.3	7	MET336	0.000	
47	  CA	80.232	32.988	69.594	C.3	7	MET336	0.000	
48	   C	79.008	32.253	69.007	C.2	7	MET336	0.000	
49	   O	77.862	32.671	69.230	O.2	7	MET336	0.000	
50	  CB	81.057	33.677	68.491	C.3	7	MET336	0.000	
51	  CG	80.339	34.799	67.727	C.3	7	MET336	0.000	
52	  SD	79.595	36.121	68.722	S.3	7	MET336	0.000	
53	  CE	80.576	37.497	68.184	C.3	7	MET336	0.000	
54	   N	76.525	31.314	71.687	N.3	8	LEU339	0.000	
55	  CA	75.782	32.455	72.204	C.3	8	LEU339	0.000	
56	   C	74.707	32.763	71.179	C.2	8	LEU339	0.000	
57	   O	73.560	33.061	71.528	O.2	8	LEU339	0.000	
58	  CB	76.692	33.662	72.381	C.3	8	LEU339	0.000	
59	  CG	77.642	33.598	73.571	C.3	8	LEU339	0.000	
60	 CD1	78.358	34.932	73.702	C.3	8	LEU339	0.000	
61	 CD2	76.848	33.291	74.837	C.3	8	LEU339	0.000	
62	   N	75.073	32.670	69.908	N.am	9	MET340	0.000	
63	  CA	74.102	32.965	68.879	C.3	9	MET340	0.000	
64	   C	72.959	31.933	68.871	C.2	9	MET340	0.000	
65	   O	71.777	32.307	68.872	O.2	9	MET340	0.000	
66	  CB	74.803	33.069	67.521	C.3	9	MET340	0.000	
67	  CG	75.437	34.437	67.292	C.3	9	MET340	0.000	
68	  SD	76.543	34.602	65.848	S.3	9	MET340	0.000	
69	  CE	76.749	36.410	65.862	C.3	9	MET340	0.000	
70	   N	70.663	32.811	71.433	N.3	10	LEU343	0.000	
71	  CA	69.906	33.996	71.036	C.3	10	LEU343	0.000	
72	   C	68.729	33.565	70.151	C.2	10	LEU343	0.000	
73	   O	67.567	33.892	70.414	O.2	10	LEU343	0.000	
74	  CB	70.812	34.959	70.249	C.3	10	LEU343	0.000	
75	  CG	70.096	36.189	69.665	C.3	10	LEU343	0.000	
76	 CD1	69.510	37.058	70.787	C.3	10	LEU343	0.000	
77	 CD2	71.057	36.962	68.798	C.3	10	LEU343	0.000	
78	   N	65.857	31.700	71.978	N.3	11	ARG346	0.000	
79	  CA	64.887	32.454	72.775	C.3	11	ARG346	0.000	
80	   C	64.122	33.452	71.922	C.2	11	ARG346	0.000	
81	   O	63.045	33.903	72.313	O.2	11	ARG346	0.000	
82	  CB	65.527	33.177	73.980	C.3	11	ARG346	0.000	
83	  CG	67.031	33.332	73.953	C.3	11	ARG346	0.000	
84	  CD	67.574	33.955	75.268	C.3	11	ARG346	0.000	
85	  NE	68.723	34.791	74.953	N.pl3	11	ARG346	0.000	
86	  CZ	69.947	34.314	74.787	C.cat	11	ARG346	0.000	
87	 NH1	70.153	33.019	74.944	N.pl3	11	ARG346	0.000	
88	 NH2	70.943	35.104	74.382	N.pl3	11	ARG346	0.000	
89	   N	67.976	39.085	73.458	N.3	12	PHE356	0.000	
90	  CA	69.328	38.841	73.958	C.3	12	PHE356	0.000	
91	   C	69.324	38.460	75.431	C.2	12	PHE356	0.000	
92	   O	70.010	37.531	75.826	O.2	12	PHE356	0.000	
93	  CB	70.206	40.077	73.767	C.3	12	PHE356	0.000	
94	  CG	70.742	40.223	72.391	C.2	12	PHE356	0.000	
95	 CD1	71.894	39.561	72.015	C.2	12	PHE356	0.000	
96	 CD2	70.082	41.005	71.464	C.2	12	PHE356	0.000	
97	 CE1	72.385	39.670	70.739	C.2	12	PHE356	0.000	
98	 CE2	70.564	41.126	70.170	C.2	12	PHE356	0.000	
99	  CZ	71.721	40.455	69.806	C.2	12	PHE356	0.000	
100	   N	76.190	46.183	62.028	N.3	13	ILE373	0.000	
101	  CA	75.401	45.345	62.909	C.3	13	ILE373	0.000	
102	   C	74.064	44.986	62.294	C.2	13	ILE373	0.000	
103	   O	73.565	43.886	62.507	O.2	13	ILE373	0.000	
104	  CB	75.158	46.032	64.269	C.3	13	ILE373	0.000	
105	 CG1	76.423	45.943	65.125	C.3	13	ILE373	0.000	
106	 CG2	73.963	45.399	64.978	C.3	13	ILE373	0.000	
107	 CD1	76.856	44.531	65.412	C.3	13	ILE373	0.000	
108	   N	74.302	41.817	60.432	N.3	14	ILE376	0.000	
109	  CA	74.358	40.623	61.265	C.3	14	ILE376	0.000	
110	   C	72.996	40.289	61.859	C.2	14	ILE376	0.000	
111	   O	72.570	39.137	61.832	O.2	14	ILE376	0.000	
112	  CB	75.379	40.794	62.402	C.3	14	ILE376	0.000	
113	 CG1	76.778	40.943	61.812	C.3	14	ILE376	0.000	
114	 CG2	75.347	39.598	63.337	C.3	14	ILE376	0.000	
115	 CD1	77.855	41.135	62.851	C.3	14	ILE376	0.000	
116	   N	72.307	41.294	62.384	N.am	15	PHE377	0.000	
117	  CA	70.950	41.099	62.880	C.3	15	PHE377	0.000	
118	   C	70.071	40.404	61.845	C.2	15	PHE377	0.000	
119	   O	69.186	39.624	62.190	O.2	15	PHE377	0.000	
120	  CB	70.316	42.442	63.245	C.3	15	PHE377	0.000	
121	  CG	70.683	42.928	64.606	C.2	15	PHE377	0.000	
122	 CD1	71.868	42.533	65.194	C.2	15	PHE377	0.000	
123	 CD2	69.824	43.750	65.320	C.2	15	PHE377	0.000	
124	 CE1	72.190	42.944	66.474	C.2	15	PHE377	0.000	
125	 CE2	70.141	44.164	66.598	C.2	15	PHE377	0.000	
126	  CZ	71.324	43.758	67.175	C.2	15	PHE377	0.000	
127	   N	70.904	36.633	61.793	N.3	16	LEU380	0.000	
128	  CA	70.366	35.987	62.974	C.3	16	LEU380	0.000	
129	   C	68.856	35.848	62.869	C.2	16	LEU380	0.000	
130	   O	68.296	34.809	63.227	O.2	16	LEU380	0.000	
131	  CB	70.722	36.791	64.222	C.3	16	LEU380	0.000	
132	  CG	72.220	36.956	64.475	C.3	16	LEU380	0.000	
133	 CD1	72.452	37.850	65.675	C.3	16	LEU380	0.000	
134	 CD2	72.841	35.603	64.712	C.3	16	LEU380	0.000	
135	   N	80.007	38.031	63.269	N.3	17	GLY472	0.000	
136	  CA	80.073	38.700	64.548	C.3	17	GLY472	0.000	
137	   C	81.493	38.795	65.061	C.2	17	GLY472	0.000	
138	   O	81.813	39.752	65.741	O.2	17	GLY472	0.000	
139	   N	83.483	41.361	62.976	N.3	18	HIS475	0.000	
140	  CA	82.987	42.656	63.407	C.3	18	HIS475	0.000	
141	   C	83.464	42.988	64.814	C.2	18	HIS475	0.000	
142	   O	83.856	44.121	65.081	O.2	18	HIS475	0.000	
143	  CB	81.467	42.665	63.390	C.3	18	HIS475	0.000	
144	  CG	80.868	43.949	63.866	C.2	18	HIS475	0.000	
145	 CD2	80.188	44.914	63.203	C.2	18	HIS475	0.000	
146	 ND1	80.927	44.356	65.180	N.2	18	HIS475	0.000	
147	 CE1	80.307	45.515	65.308	C.2	18	HIS475	0.000	
148	 NE2	79.849	45.876	64.123	N.pl3	18	HIS475	0.000	
149	   N	83.429	42.006	65.711	N.am	19	LEU476	0.000	
150	  CA	83.839	42.229	67.097	C.3	19	LEU476	0.000	
151	   C	85.278	42.728	67.163	C.2	19	LEU476	0.000	
152	   O	85.634	43.557	68.015	O.2	19	LEU476	0.000	
153	  CB	83.721	40.938	67.896	C.3	19	LEU476	0.000	
154	  CG	84.383	40.917	69.275	C.3	19	LEU476	0.000	
155	 CD1	83.699	41.915	70.186	C.3	19	LEU476	0.000	
156	 CD2	84.293	39.525	69.860	C.3	19	LEU476	0.000	
157	   N	86.099	42.229	66.248	N.am	20	LEU477	0.000	
158	  CA	87.505	42.572	66.237	C.3	20	LEU477	0.000	
159	   C	87.781	43.902	65.537	C.2	20	LEU477	0.000	
160	   O	88.788	44.546	65.810	O.2	20	LEU477	0.000	
161	  CB	88.275	41.436	65.584	C.3	20	LEU477	0.000	
162	  CG	88.061	40.103	66.309	C.3	20	LEU477	0.000	
163	 CD1	88.836	38.983	65.645	C.3	20	LEU477	0.000	
164	 CD2	88.499	40.271	67.734	C.3	20	LEU477	0.000	
165	   N	86.332	46.474	66.202	N.3	21	MET479	0.000	
166	  CA	85.775	47.488	67.084	C.3	21	MET479	0.000	
167	   C	86.808	48.229	67.917	C.2	21	MET479	0.000	
168	   O	87.778	47.639	68.400	O.2	21	MET479	0.000	
169	  CB	84.701	46.878	67.991	C.3	21	MET479	0.000	
170	  CG	83.334	46.786	67.320	C.3	21	MET479	0.000	
171	  SD	82.847	48.369	66.575	S.3	21	MET479	0.000	
172	  CE	82.517	47.922	64.832	C.3	21	MET479	0.000	
173	   N	85.866	41.107	75.527	N.3	22	VAL487	0.000	
174	  CA	85.297	39.792	75.788	C.3	22	VAL487	0.000	
175	   C	86.322	38.684	75.530	C.2	22	VAL487	0.000	
176	   O	86.519	37.806	76.373	O.2	22	VAL487	0.000	
177	  CB	84.046	39.545	74.911	C.3	22	VAL487	0.000	
178	 CG1	83.396	38.230	75.288	C.3	22	VAL487	0.000	
179	 CG2	83.068	40.679	75.085	C.3	22	VAL487	0.000	
@<TRIPOS>BOND
1 1 2 1
2 2 3 1
3 2 5 1
4 3 4 2
5 5 6 1
6 6 7 1
7 7 8 1
8 9 10 1
9 10 11 1
10 10 13 1
11 11 12 2
12 11 17 1
13 13 14 1
14 14 15 1
15 14 16 1
16 17 18 1
17 18 19 1
18 18 21 1
19 19 20 2
20 21 22 1
21 21 23 1
22 24 25 1
23 25 26 1
24 25 28 1
25 26 27 2
26 26 32 1
27 28 29 1
28 29 30 1
29 29 31 1
30 32 33 1
31 33 34 1
32 33 36 1
33 34 35 2
34 37 38 1
35 38 39 1
36 38 41 1
37 39 40 2
38 41 42 1
39 42 43 1
40 43 44 2
41 43 45 1
42 46 47 1
43 47 48 1
44 47 50 1
45 48 49 2
46 50 51 1
47 51 52 1
48 52 53 1
49 54 55 1
50 55 56 1
51 55 58 1
52 56 57 2
53 56 62 1
54 58 59 1
55 59 60 1
56 59 61 1
57 62 63 1
58 63 64 1
59 63 66 1
60 64 65 2
61 66 67 1
62 67 68 1
63 68 69 1
64 70 71 1
65 71 72 1
66 71 74 1
67 72 73 2
68 74 75 1
69 75 76 1
70 75 77 1
71 78 79 1
72 79 80 1
73 79 82 1
74 80 81 2
75 82 83 1
76 83 84 1
77 84 85 1
78 85 86 1
79 86 87 2
80 86 88 1
81 89 90 1
82 90 91 1
83 90 93 1
84 91 92 2
85 93 94 1
86 94 95 2
87 94 96 1
88 95 97 1
89 96 98 2
90 97 99 2
91 98 99 1
92 100 101 1
93 101 102 1
94 101 104 1
95 102 103 2
96 104 105 1
97 104 106 1
98 105 107 1
99 108 109 1
100 109 110 1
101 109 112 1
102 110 111 2
103 110 116 1
104 112 113 1
105 112 114 1
106 113 115 1
107 116 117 1
108 117 118 1
109 117 120 1
110 118 119 2
111 120 121 1
112 121 122 2
113 121 123 1
114 122 124 1
115 123 125 2
116 124 126 2
117 125 126 1
118 127 128 1
119 128 129 1
120 128 131 1
121 129 130 2
122 131 132 1
123 132 133 1
124 132 134 1
125 135 136 1
126 136 137 1
127 137 138 2
128 139 140 1
129 140 141 1
130 140 143 1
131 141 142 2
132 141 149 1
133 143 144 1
134 144 145 2
135 144 146 1
136 145 148 1
137 146 147 2
138 147 148 1
139 149 150 1
140 150 151 1
141 150 153 1
142 151 152 2
143 151 157 1
144 153 154 1
145 154 155 1
146 154 156 1
147 157 158 1
148 158 159 1
149 158 161 1
150 159 160 2
151 161 162 1
152 162 163 1
153 162 164 1
154 165 166 1
155 166 167 1
156 166 169 1
157 167 168 2
158 169 170 1
159 170 171 1
160 171 172 1
161 173 174 1
162 174 175 1
163 174 177 1
164 175 176 2
165 177 178 1
166 177 179 1
@<TRIPOS>SUBSTRUCTURE
1	MET295	1	RESIDUE	1 A	MET
2	LEU298	9	RESIDUE	1 A	LEU
3	THR299	17	RESIDUE	1 A	THR
4	LEU301	24	RESIDUE	1 A	LEU
5	ALA302	32	RESIDUE	1 A	ALA
6	GLU305	37	RESIDUE	1 A	GLU
7	MET336	46	RESIDUE	1 A	MET
8	LEU339	54	RESIDUE	1 A	LEU
9	MET340	62	RESIDUE	1 A	MET
10	LEU343	70	RESIDUE	1 A	LEU
11	ARG346	78	RESIDUE	1 A	ARG
12	PHE356	89	RESIDUE	1 A	PHE
13	ILE373	100	RESIDUE	1 A	ILE
14	ILE376	108	RESIDUE	1 A	ILE
15	PHE377	116	RESIDUE	1 A	PHE
16	LEU380	127	RESIDUE	1 A	LEU
17	GLY472	135	RESIDUE	1 A	GLY
18	HIS475	139	RESIDUE	1 A	HIS
19	LEU476	149	RESIDUE	1 A	LEU
20	LEU477	157	RESIDUE	1 A	LEU
21	MET479	165	RESIDUE	1 A	MET
22	VAL487	173	RESIDUE	1 A	VAL
