# created with PyMOL 2.5.0
@<TRIPOS>MOLECULE
2z4b
164 152 20              
SMALL
USER_CHARGES
@<TRIPOS>ATOM
1	   N	76.163	47.965	71.787	N.3	1	MET295	0.000	
2	  CA	77.311	47.072	71.687	C.3	1	MET295	0.000	
3	   C	77.992	46.884	73.035	C.2	1	MET295	0.000	
4	   O	78.711	45.905	73.257	O.2	1	MET295	0.000	
5	  CB	78.314	47.629	70.681	C.3	1	MET295	0.000	
6	  CG	77.698	47.877	69.325	C.3	1	MET295	0.000	
7	  SD	76.874	46.400	68.716	S.3	1	MET295	0.000	
8	  CE	78.291	45.426	68.463	C.3	1	MET295	0.000	
9	   N	75.529	44.191	74.626	N.3	2	LEU298	0.000	
10	  CA	75.697	42.881	74.000	C.3	2	LEU298	0.000	
11	   C	76.992	42.258	74.476	C.2	2	LEU298	0.000	
12	   O	77.067	41.057	74.742	O.2	2	LEU298	0.000	
13	  CB	75.733	43.012	72.478	C.3	2	LEU298	0.000	
14	  CG	74.408	43.408	71.835	C.3	2	LEU298	0.000	
15	 CD1	74.606	43.647	70.354	C.3	2	LEU298	0.000	
16	 CD2	73.383	42.323	72.081	C.3	2	LEU298	0.000	
17	   N	78.009	43.102	74.589	N.am	3	THR299	0.000	
18	  CA	79.324	42.683	75.025	C.3	3	THR299	0.000	
19	   C	79.350	42.302	76.505	C.2	3	THR299	0.000	
20	   O	80.025	41.350	76.890	O.2	3	THR299	0.000	
21	  CB	80.352	43.799	74.773	C.3	3	THR299	0.000	
22	 CG2	81.707	43.356	75.198	C.3	3	THR299	0.000	
23	 OG1	80.403	44.100	73.375	O.3	3	THR299	0.000	
24	   N	76.817	41.202	78.101	N.3	4	LEU301	0.000	
25	  CA	76.003	39.992	78.153	C.3	4	LEU301	0.000	
26	   C	76.828	38.765	77.792	C.2	4	LEU301	0.000	
27	   O	76.791	37.754	78.496	O.2	4	LEU301	0.000	
28	  CB	74.828	40.101	77.188	C.3	4	LEU301	0.000	
29	  CG	73.906	38.883	77.106	C.3	4	LEU301	0.000	
30	 CD1	73.325	38.586	78.471	C.3	4	LEU301	0.000	
31	 CD2	72.797	39.146	76.102	C.3	4	LEU301	0.000	
32	   N	77.572	38.868	76.694	N.am	5	ALA302	0.000	
33	  CA	78.347	37.746	76.186	C.3	5	ALA302	0.000	
34	   C	79.301	37.267	77.258	C.2	5	ALA302	0.000	
35	   O	79.404	36.067	77.535	O.2	5	ALA302	0.000	
36	  CB	79.126	38.155	74.938	C.3	5	ALA302	0.000	
37	   N	77.393	35.375	79.846	N.3	6	GLU305	0.000	
38	  CA	76.920	34.106	79.310	C.3	6	GLU305	0.000	
39	   C	78.052	33.092	79.162	C.2	6	GLU305	0.000	
40	   O	77.858	31.893	79.364	O.2	6	GLU305	0.000	
41	  CB	76.260	34.328	77.953	C.3	6	GLU305	0.000	
42	  CG	74.948	35.056	78.033	C.3	6	GLU305	0.000	
43	  CD	74.240	35.137	76.698	C.2	6	GLU305	0.000	
44	 OE1	73.328	34.324	76.430	O.co2	6	GLU305	0.000	
45	 OE2	74.605	36.028	75.908	O.co2	6	GLU305	0.000	
46	   N	80.735	31.696	70.261	N.3	7	MET336	0.000	
47	  CA	79.851	32.596	69.556	C.3	7	MET336	0.000	
48	   C	78.674	31.840	68.930	C.2	7	MET336	0.000	
49	   O	77.530	32.276	69.059	O.2	7	MET336	0.000	
50	  CB	80.626	33.358	68.475	C.3	7	MET336	0.000	
51	  CG	79.783	34.386	67.749	C.3	7	MET336	0.000	
52	  SD	79.321	35.788	68.801	S.3	7	MET336	0.000	
53	  CE	80.289	37.125	68.076	C.3	7	MET336	0.000	
54	   N	76.175	30.792	71.765	N.3	8	LEU339	0.000	
55	  CA	75.422	31.970	72.178	C.3	8	LEU339	0.000	
56	   C	74.316	32.287	71.170	C.2	8	LEU339	0.000	
57	   O	73.170	32.558	71.553	O.2	8	LEU339	0.000	
58	  CB	76.352	33.180	72.322	C.3	8	LEU339	0.000	
59	  CG	77.344	33.173	73.488	C.3	8	LEU339	0.000	
60	 CD1	77.868	34.600	73.714	C.3	8	LEU339	0.000	
61	 CD2	76.667	32.660	74.733	C.3	8	LEU339	0.000	
62	   N	74.649	32.222	69.885	N.am	9	MET340	0.000	
63	  CA	73.682	32.542	68.853	C.3	9	MET340	0.000	
64	   C	72.611	31.463	68.718	C.2	9	MET340	0.000	
65	   O	71.442	31.762	68.434	O.2	9	MET340	0.000	
66	  CB	74.390	32.756	67.517	C.3	9	MET340	0.000	
67	  CG	75.152	34.072	67.459	C.3	9	MET340	0.000	
68	  SD	76.004	34.305	65.920	S.3	9	MET340	0.000	
69	  CE	76.348	36.168	65.939	C.3	9	MET340	0.000	
70	   N	70.347	32.363	71.487	N.3	10	LEU343	0.000	
71	  CA	69.555	33.510	71.049	C.3	10	LEU343	0.000	
72	   C	68.403	33.084	70.130	C.2	10	LEU343	0.000	
73	   O	67.246	33.520	70.296	O.2	10	LEU343	0.000	
74	  CB	70.451	34.493	70.297	C.3	10	LEU343	0.000	
75	  CG	69.777	35.715	69.665	C.3	10	LEU343	0.000	
76	 CD1	69.291	36.653	70.764	C.3	10	LEU343	0.000	
77	 CD2	70.776	36.421	68.721	C.3	10	LEU343	0.000	
78	   N	65.538	31.203	72.058	N.3	11	ARG346	0.000	
79	  CA	64.600	31.992	72.840	C.3	11	ARG346	0.000	
80	   C	63.866	33.036	72.030	C.2	11	ARG346	0.000	
81	   O	62.863	33.548	72.506	O.2	11	ARG346	0.000	
82	  CB	65.244	32.654	74.067	C.3	11	ARG346	0.000	
83	  CG	66.636	33.146	73.917	C.3	11	ARG346	0.000	
84	  CD	67.227	33.640	75.264	C.3	11	ARG346	0.000	
85	  NE	68.397	34.462	74.951	N.pl3	11	ARG346	0.000	
86	  CZ	69.619	33.975	74.798	C.cat	11	ARG346	0.000	
87	 NH1	69.814	32.673	74.966	N.pl3	11	ARG346	0.000	
88	 NH2	70.623	34.767	74.397	N.pl3	11	ARG346	0.000	
89	   N	67.696	38.620	73.423	N.3	12	PHE356	0.000	
90	  CA	69.066	38.387	73.893	C.3	12	PHE356	0.000	
91	   C	69.126	37.992	75.367	C.2	12	PHE356	0.000	
92	   O	69.984	37.206	75.785	O.2	12	PHE356	0.000	
93	  CB	69.920	39.644	73.684	C.3	12	PHE356	0.000	
94	  CG	70.434	39.797	72.293	C.2	12	PHE356	0.000	
95	 CD1	71.636	39.232	71.923	C.2	12	PHE356	0.000	
96	 CD2	69.703	40.494	71.350	C.2	12	PHE356	0.000	
97	 CE1	72.103	39.350	70.635	C.2	12	PHE356	0.000	
98	 CE2	70.159	40.621	70.055	C.2	12	PHE356	0.000	
99	  CZ	71.360	40.050	69.692	C.2	12	PHE356	0.000	
100	   N	75.800	45.738	61.919	N.3	13	ILE373	0.000	
101	  CA	75.023	44.853	62.767	C.3	13	ILE373	0.000	
102	   C	73.697	44.446	62.129	C.2	13	ILE373	0.000	
103	   O	73.274	43.294	62.253	O.2	13	ILE373	0.000	
104	  CB	74.748	45.509	64.141	C.3	13	ILE373	0.000	
105	 CG1	76.035	45.528	64.976	C.3	13	ILE373	0.000	
106	 CG2	73.602	44.790	64.851	C.3	13	ILE373	0.000	
107	 CD1	76.584	44.167	65.292	C.3	13	ILE373	0.000	
108	   N	73.864	41.307	60.353	N.3	14	ILE376	0.000	
109	  CA	73.943	40.136	61.217	C.3	14	ILE376	0.000	
110	   C	72.585	39.801	61.854	C.2	14	ILE376	0.000	
111	   O	72.188	38.634	61.907	O.2	14	ILE376	0.000	
112	  CB	74.991	40.371	62.313	C.3	14	ILE376	0.000	
113	 CG1	76.347	40.646	61.654	C.3	14	ILE376	0.000	
114	 CG2	75.066	39.170	63.252	C.3	14	ILE376	0.000	
115	 CD1	77.459	40.926	62.641	C.3	14	ILE376	0.000	
116	   N	71.872	40.824	62.322	N.am	15	PHE377	0.000	
117	  CA	70.528	40.636	62.864	C.3	15	PHE377	0.000	
118	   C	69.645	39.942	61.841	C.2	15	PHE377	0.000	
119	   O	68.778	39.146	62.198	O.2	15	PHE377	0.000	
120	  CB	69.894	41.978	63.231	C.3	15	PHE377	0.000	
121	  CG	70.317	42.499	64.566	C.2	15	PHE377	0.000	
122	 CD1	71.453	42.003	65.177	C.2	15	PHE377	0.000	
123	 CD2	69.575	43.461	65.221	C.2	15	PHE377	0.000	
124	 CE1	71.850	42.448	66.419	C.2	15	PHE377	0.000	
125	 CE2	69.967	43.915	66.469	C.2	15	PHE377	0.000	
126	  CZ	71.108	43.402	67.066	C.2	15	PHE377	0.000	
127	   N	70.478	36.239	61.729	N.3	16	LEU380	0.000	
128	  CA	69.988	35.577	62.934	C.3	16	LEU380	0.000	
129	   C	68.484	35.418	62.860	C.2	16	LEU380	0.000	
130	   O	67.948	34.375	63.203	O.2	16	LEU380	0.000	
131	  CB	70.360	36.381	64.189	C.3	16	LEU380	0.000	
132	  CG	71.871	36.517	64.447	C.3	16	LEU380	0.000	
133	 CD1	72.132	37.479	65.590	C.3	16	LEU380	0.000	
134	 CD2	72.470	35.148	64.764	C.3	16	LEU380	0.000	
135	   N	79.587	37.570	63.123	N.3	17	GLY472	0.000	
136	  CA	79.589	38.238	64.410	C.3	17	GLY472	0.000	
137	   C	80.971	38.328	65.019	C.2	17	GLY472	0.000	
138	   O	81.264	39.275	65.738	O.2	17	GLY472	0.000	
139	   N	82.920	41.147	63.133	N.3	18	HIS475	0.000	
140	  CA	82.430	42.465	63.495	C.3	18	HIS475	0.000	
141	   C	82.949	42.831	64.881	C.2	18	HIS475	0.000	
142	   O	83.362	43.959	65.139	O.2	18	HIS475	0.000	
143	  CB	80.895	42.480	63.478	C.3	18	HIS475	0.000	
144	  CG	80.301	43.793	63.874	C.2	18	HIS475	0.000	
145	 CD2	79.584	44.698	63.169	C.2	18	HIS475	0.000	
146	 ND1	80.429	44.312	65.146	N.2	18	HIS475	0.000	
147	 CE1	79.817	45.480	65.205	C.2	18	HIS475	0.000	
148	 NE2	79.296	45.739	64.019	N.pl3	18	HIS475	0.000	
149	   N	82.936	41.857	65.775	N.am	19	LEU476	0.000	
150	  CA	83.416	42.067	67.126	C.3	19	LEU476	0.000	
151	   C	84.880	42.496	67.121	C.2	19	LEU476	0.000	
152	   O	85.311	43.293	67.959	O.2	19	LEU476	0.000	
153	  CB	83.257	40.779	67.930	C.3	19	LEU476	0.000	
154	  CG	83.815	40.817	69.353	C.3	19	LEU476	0.000	
155	 CD1	83.076	41.875	70.158	C.3	19	LEU476	0.000	
156	 CD2	83.660	39.472	70.015	C.3	19	LEU476	0.000	
157	   N	85.945	46.082	66.020	N.3	20	MET479	0.000	
158	  CA	85.373	47.100	66.896	C.3	20	MET479	0.000	
159	   C	86.401	47.858	67.725	C.2	20	MET479	0.000	
160	   O	87.353	47.273	68.249	O.2	20	MET479	0.000	
161	  CB	84.311	46.486	67.816	C.3	20	MET479	0.000	
162	  CG	82.931	46.384	67.184	C.3	20	MET479	0.000	
163	  SD	82.262	47.980	66.596	S.3	20	MET479	0.000	
164	  CE	82.194	47.711	64.795	C.3	20	MET479	0.000	
@<TRIPOS>BOND
1 1 2 1
2 2 3 1
3 2 5 1
4 3 4 2
5 5 6 1
6 6 7 1
7 7 8 1
8 9 10 1
9 10 11 1
10 10 13 1
11 11 12 2
12 11 17 1
13 13 14 1
14 14 15 1
15 14 16 1
16 17 18 1
17 18 19 1
18 18 21 1
19 19 20 2
20 21 22 1
21 21 23 1
22 24 25 1
23 25 26 1
24 25 28 1
25 26 27 2
26 26 32 1
27 28 29 1
28 29 30 1
29 29 31 1
30 32 33 1
31 33 34 1
32 33 36 1
33 34 35 2
34 37 38 1
35 38 39 1
36 38 41 1
37 39 40 2
38 41 42 1
39 42 43 1
40 43 44 2
41 43 45 1
42 46 47 1
43 47 48 1
44 47 50 1
45 48 49 2
46 50 51 1
47 51 52 1
48 52 53 1
49 54 55 1
50 55 56 1
51 55 58 1
52 56 57 2
53 56 62 1
54 58 59 1
55 59 60 1
56 59 61 1
57 62 63 1
58 63 64 1
59 63 66 1
60 64 65 2
61 66 67 1
62 67 68 1
63 68 69 1
64 70 71 1
65 71 72 1
66 71 74 1
67 72 73 2
68 74 75 1
69 75 76 1
70 75 77 1
71 78 79 1
72 79 80 1
73 79 82 1
74 80 81 2
75 82 83 1
76 83 84 1
77 84 85 1
78 85 86 1
79 86 87 2
80 86 88 1
81 89 90 1
82 90 91 1
83 90 93 1
84 91 92 2
85 93 94 1
86 94 95 2
87 94 96 1
88 95 97 1
89 96 98 2
90 97 99 2
91 98 99 1
92 100 101 1
93 101 102 1
94 101 104 1
95 102 103 2
96 104 105 1
97 104 106 1
98 105 107 1
99 108 109 1
100 109 110 1
101 109 112 1
102 110 111 2
103 110 116 1
104 112 113 1
105 112 114 1
106 113 115 1
107 116 117 1
108 117 118 1
109 117 120 1
110 118 119 2
111 120 121 1
112 121 122 2
113 121 123 1
114 122 124 1
115 123 125 2
116 124 126 2
117 125 126 1
118 127 128 1
119 128 129 1
120 128 131 1
121 129 130 2
122 131 132 1
123 132 133 1
124 132 134 1
125 135 136 1
126 136 137 1
127 137 138 2
128 139 140 1
129 140 141 1
130 140 143 1
131 141 142 2
132 141 149 1
133 143 144 1
134 144 145 2
135 144 146 1
136 145 148 1
137 146 147 2
138 147 148 1
139 149 150 1
140 150 151 1
141 150 153 1
142 151 152 2
143 153 154 1
144 154 155 1
145 154 156 1
146 157 158 1
147 158 159 1
148 158 161 1
149 159 160 2
150 161 162 1
151 162 163 1
152 163 164 1
@<TRIPOS>SUBSTRUCTURE
1	MET295	1	RESIDUE	1 A	MET
2	LEU298	9	RESIDUE	1 A	LEU
3	THR299	17	RESIDUE	1 A	THR
4	LEU301	24	RESIDUE	1 A	LEU
5	ALA302	32	RESIDUE	1 A	ALA
6	GLU305	37	RESIDUE	1 A	GLU
7	MET336	46	RESIDUE	1 A	MET
8	LEU339	54	RESIDUE	1 A	LEU
9	MET340	62	RESIDUE	1 A	MET
10	LEU343	70	RESIDUE	1 A	LEU
11	ARG346	78	RESIDUE	1 A	ARG
12	PHE356	89	RESIDUE	1 A	PHE
13	ILE373	100	RESIDUE	1 A	ILE
14	ILE376	108	RESIDUE	1 A	ILE
15	PHE377	116	RESIDUE	1 A	PHE
16	LEU380	127	RESIDUE	1 A	LEU
17	GLY472	135	RESIDUE	1 A	GLY
18	HIS475	139	RESIDUE	1 A	HIS
19	LEU476	149	RESIDUE	1 A	LEU
20	MET479	157	RESIDUE	1 A	MET
