# created with PyMOL 2.5.0
@<TRIPOS>MOLECULE
3cbp
157 155 20              
SMALL
USER_CHARGES
@<TRIPOS>ATOM
1	   N	11.656	-0.253	2.257	N.3	1	ILE223	0.000	
2	  CA	10.719	-1.187	2.870	C.3	1	ILE223	0.000	
3	   C	9.405	-0.452	3.091	C.2	1	ILE223	0.000	
4	   O	9.370	0.588	3.746	O.2	1	ILE223	0.000	
5	  CB	11.241	-1.694	4.234	C.3	1	ILE223	0.000	
6	 CG1	12.590	-2.388	4.046	C.3	1	ILE223	0.000	
7	 CG2	10.236	-2.650	4.859	C.3	1	ILE223	0.000	
8	 CD1	13.293	-2.725	5.352	C.3	1	ILE223	0.000	
9	   N	8.326	-0.996	2.542	N.am	2	SER224	0.000	
10	  CA	7.014	-0.374	2.666	C.3	2	SER224	0.000	
11	   C	6.568	-0.156	4.109	C.2	2	SER224	0.000	
12	   O	6.613	-1.069	4.933	O.2	2	SER224	0.000	
13	  CB	5.971	-1.216	1.926	C.3	2	SER224	0.000	
14	  OG	4.709	-0.574	1.927	O.3	2	SER224	0.000	
15	   N	6.144	1.071	4.401	N.am	3	SER225	0.000	
16	  CA	5.662	1.453	5.725	C.3	3	SER225	0.000	
17	   C	6.687	1.290	6.843	C.2	3	SER225	0.000	
18	   O	6.318	1.099	8.004	O.2	3	SER225	0.000	
19	  CB	4.402	0.655	6.075	C.3	3	SER225	0.000	
20	  OG	3.366	0.899	5.137	O.3	3	SER225	0.000	
21	   N	7.967	1.372	6.501	N.am	4	ALA226	0.000	
22	  CA	9.019	1.230	7.499	C.3	4	ALA226	0.000	
23	   C	9.585	2.584	7.928	C.2	4	ALA226	0.000	
24	   O	10.512	2.645	8.732	O.2	4	ALA226	0.000	
25	  CB	10.137	0.339	6.955	C.3	4	ALA226	0.000	
26	   N	9.028	3.666	7.393	N.am	5	GLY227	0.000	
27	  CA	9.503	4.994	7.746	C.3	5	GLY227	0.000	
28	   C	10.833	5.335	7.102	C.2	5	GLY227	0.000	
29	   O	11.035	5.097	5.909	O.2	5	GLY227	0.000	
30	   N	11.745	5.915	7.878	N.am	6	GLU228	0.000	
31	  CA	13.059	6.253	7.343	C.3	6	GLU228	0.000	
32	   C	13.989	5.059	7.462	C.2	6	GLU228	0.000	
33	   O	13.767	4.170	8.285	O.2	6	GLU228	0.000	
34	  CB	13.673	7.446	8.086	C.3	6	GLU228	0.000	
35	  CG	12.924	8.753	7.893	C.3	6	GLU228	0.000	
36	  CD	13.662	9.937	8.485	C.2	6	GLU228	0.000	
37	 OE1	14.143	9.824	9.629	O.co2	6	GLU228	0.000	
38	 OE2	13.757	10.986	7.813	O.co2	6	GLU228	0.000	
39	   N	15.026	5.053	6.633	N.am	7	GLY229	0.000	
40	  CA	16.004	3.983	6.650	C.3	7	GLY229	0.000	
41	   C	17.409	4.547	6.541	C.2	7	GLY229	0.000	
42	   O	17.604	5.748	6.312	O.2	7	GLY229	0.000	
43	   N	25.883	3.208	16.852	N.3	8	TYR245	0.000	
44	  CA	24.622	3.146	17.571	C.3	8	TYR245	0.000	
45	   C	24.816	3.646	18.996	C.2	8	TYR245	0.000	
46	   O	25.038	2.863	19.919	O.2	8	TYR245	0.000	
47	  CB	24.091	1.706	17.593	C.3	8	TYR245	0.000	
48	  CG	22.584	1.594	17.710	C.2	8	TYR245	0.000	
49	 CD1	21.844	0.950	16.723	C.2	8	TYR245	0.000	
50	 CD2	21.897	2.114	18.812	C.2	8	TYR245	0.000	
51	 CE1	20.456	0.822	16.821	C.2	8	TYR245	0.000	
52	 CE2	20.510	1.992	18.918	C.2	8	TYR245	0.000	
53	  CZ	19.797	1.344	17.918	C.2	8	TYR245	0.000	
54	  OH	18.427	1.223	18.016	O.3	8	TYR245	0.000	
55	   N	11.147	0.964	20.196	N.3	9	GLY264	0.000	
56	  CA	11.423	0.885	18.775	C.3	9	GLY264	0.000	
57	   C	12.907	1.031	18.486	C.2	9	GLY264	0.000	
58	   O	13.415	0.479	17.506	O.2	9	GLY264	0.000	
59	   N	13.612	1.764	19.345	N.am	10	ASN265	0.000	
60	  CA	15.047	1.982	19.152	C.3	10	ASN265	0.000	
61	   C	15.959	1.367	20.218	C.2	10	ASN265	0.000	
62	   O	17.131	1.732	20.313	O.2	10	ASN265	0.000	
63	  CB	15.356	3.485	19.062	C.3	10	ASN265	0.000	
64	  CG	14.862	4.119	17.771	C.2	10	ASN265	0.000	
65	 ND2	14.647	5.428	17.803	N.pl3	10	ASN265	0.000	
66	 OD1	14.699	3.448	16.756	O.2	10	ASN265	0.000	
67	   N	14.720	10.467	18.197	N.3	11	ASN282	0.000	
68	  CA	14.524	9.533	17.087	C.3	11	ASN282	0.000	
69	   C	14.324	10.290	15.773	C.2	11	ASN282	0.000	
70	   O	14.154	9.690	14.710	O.2	11	ASN282	0.000	
71	  CB	13.330	8.607	17.351	C.3	11	ASN282	0.000	
72	  CG	12.030	9.361	17.566	C.2	11	ASN282	0.000	
73	 ND2	12.103	10.502	18.240	N.pl3	11	ASN282	0.000	
74	 OD1	10.966	8.906	17.143	O.2	11	ASN282	0.000	
75	   N	20.480	3.805	14.819	N.3	12	HIS293	0.000	
76	  CA	19.087	3.496	15.121	C.3	12	HIS293	0.000	
77	   C	18.171	3.645	13.909	C.2	12	HIS293	0.000	
78	   O	17.008	3.238	13.957	O.2	12	HIS293	0.000	
79	  CB	18.590	4.407	16.244	C.3	12	HIS293	0.000	
80	  CG	18.768	5.862	15.949	C.2	12	HIS293	0.000	
81	 CD2	17.875	6.819	15.600	C.2	12	HIS293	0.000	
82	 ND1	20.007	6.465	15.921	N.2	12	HIS293	0.000	
83	 CE1	19.871	7.730	15.562	C.2	12	HIS293	0.000	
84	 NE2	18.586	7.969	15.360	N.pl3	12	HIS293	0.000	
85	   N	18.683	4.224	12.826	N.am	13	LYS294	0.000	
86	  CA	17.874	4.404	11.620	C.3	13	LYS294	0.000	
87	   C	17.902	3.199	10.675	C.2	13	LYS294	0.000	
88	   O	17.167	3.168	9.689	O.2	13	LYS294	0.000	
89	  CB	18.305	5.667	10.865	C.3	13	LYS294	0.000	
90	  CG	17.859	6.972	11.528	C.3	13	LYS294	0.000	
91	  CD	16.358	7.173	11.403	C.3	13	LYS294	0.000	
92	  CE	15.889	8.376	12.215	C.3	13	LYS294	0.000	
93	  NZ	14.418	8.581	12.076	N.4	13	LYS294	0.000	
94	   N	18.746	2.209	10.962	N.am	14	ALA295	0.000	
95	  CA	18.798	1.021	10.109	C.3	14	ALA295	0.000	
96	   C	17.589	0.144	10.407	C.2	14	ALA295	0.000	
97	   O	17.314	-0.190	11.566	O.2	14	ALA295	0.000	
98	  CB	20.080	0.237	10.355	C.3	14	ALA295	0.000	
99	   N	16.864	-0.231	9.358	N.am	15	ASN296	0.000	
100	  CA	15.689	-1.064	9.525	C.3	15	ASN296	0.000	
101	   C	16.024	-2.542	9.608	C.2	15	ASN296	0.000	
102	   O	17.157	-2.955	9.368	O.2	15	ASN296	0.000	
103	  CB	14.700	-0.812	8.385	C.3	15	ASN296	0.000	
104	  CG	14.005	0.521	8.524	C.2	15	ASN296	0.000	
105	 ND2	14.025	1.323	7.462	N.pl3	15	ASN296	0.000	
106	 OD1	13.457	0.830	9.582	O.2	15	ASN296	0.000	
107	   N	15.017	-3.329	9.954	N.am	16	HIS297	0.000	
108	  CA	15.162	-4.767	10.090	C.3	16	HIS297	0.000	
109	   C	14.953	-5.543	8.790	C.2	16	HIS297	0.000	
110	   O	14.201	-5.130	7.913	O.2	16	HIS297	0.000	
111	  CB	14.159	-5.291	11.114	C.3	16	HIS297	0.000	
112	  CG	14.001	-6.779	11.083	C.2	16	HIS297	0.000	
113	 CD2	13.124	-7.563	10.413	C.2	16	HIS297	0.000	
114	 ND1	14.878	-7.635	11.715	N.2	16	HIS297	0.000	
115	 CE1	14.549	-8.883	11.431	C.2	16	HIS297	0.000	
116	 NE2	13.491	-8.869	10.643	N.pl3	16	HIS297	0.000	
117	   N	15.631	-6.681	8.695	N.am	17	SER298	0.000	
118	  CA	15.497	-7.584	7.560	C.3	17	SER298	0.000	
119	   C	15.949	-8.973	7.989	C.2	17	SER298	0.000	
120	   O	16.872	-9.115	8.790	O.2	17	SER298	0.000	
121	  CB	16.342	-7.134	6.375	C.3	17	SER298	0.000	
122	  OG	16.228	-8.082	5.321	O.3	17	SER298	0.000	
123	   N	17.017	-7.614	13.699	N.3	18	TYR335	0.000	
124	  CA	16.773	-7.139	15.061	C.3	18	TYR335	0.000	
125	   C	16.902	-8.248	16.105	C.2	18	TYR335	0.000	
126	   O	17.097	-7.977	17.294	O.2	18	TYR335	0.000	
127	  CB	15.401	-6.459	15.141	C.3	18	TYR335	0.000	
128	  CG	15.364	-5.058	14.534	C.2	18	TYR335	0.000	
129	 CD1	16.449	-4.548	13.810	C.2	18	TYR335	0.000	
130	 CD2	14.248	-4.239	14.703	C.2	18	TYR335	0.000	
131	 CE1	16.416	-3.258	13.277	C.2	18	TYR335	0.000	
132	 CE2	14.206	-2.953	14.177	C.2	18	TYR335	0.000	
133	  CZ	15.291	-2.467	13.468	C.2	18	TYR335	0.000	
134	  OH	15.251	-1.186	12.970	O.3	18	TYR335	0.000	
135	   N	4.521	-5.609	13.296	N.3	19	TRP352	0.000	
136	  CA	5.141	-5.495	11.985	C.3	19	TRP352	0.000	
137	   C	6.222	-6.557	11.819	C.2	19	TRP352	0.000	
138	   O	6.453	-7.058	10.718	O.2	19	TRP352	0.000	
139	  CB	5.747	-4.100	11.782	C.3	19	TRP352	0.000	
140	  CG	6.871	-3.761	12.725	C.2	19	TRP352	0.000	
141	 CD1	6.792	-3.011	13.864	C.2	19	TRP352	0.000	
142	 CD2	8.242	-4.169	12.608	C.2	19	TRP352	0.000	
143	 CE2	8.935	-3.625	13.713	C.2	19	TRP352	0.000	
144	 CE3	8.950	-4.942	11.678	C.2	19	TRP352	0.000	
145	 NE1	8.030	-2.923	14.462	N.pl3	19	TRP352	0.000	
146	 CZ2	10.306	-3.830	13.911	C.2	19	TRP352	0.000	
147	 CZ3	10.315	-5.146	11.877	C.2	19	TRP352	0.000	
148	 CH2	10.974	-4.591	12.987	C.2	19	TRP352	0.000	
149	   N	6.189	-9.604	9.010	N.3	20	GLU356	0.000	
150	  CA	7.290	-9.840	8.085	C.3	20	GLU356	0.000	
151	   C	7.905	-11.221	8.288	C.2	20	GLU356	0.000	
152	   O	8.476	-11.794	7.361	O.2	20	GLU356	0.000	
153	  CB	8.367	-8.761	8.246	C.3	20	GLU356	0.000	
154	  CG	9.360	-8.715	7.091	C.3	20	GLU356	0.000	
155	  CD	10.303	-7.526	7.166	C.2	20	GLU356	0.000	
156	 OE1	11.202	-7.530	8.035	O.co2	20	GLU356	0.000	
157	 OE2	10.140	-6.584	6.357	O.co2	20	GLU356	0.000	
@<TRIPOS>BOND
1 1 2 1
2 2 3 1
3 2 5 1
4 3 4 2
5 3 9 1
6 5 6 1
7 5 7 1
8 6 8 1
9 9 10 1
10 10 11 1
11 10 13 1
12 11 12 2
13 11 15 1
14 13 14 1
15 15 16 1
16 16 17 1
17 16 19 1
18 17 18 2
19 17 21 1
20 19 20 1
21 21 22 1
22 22 23 1
23 22 25 1
24 23 24 2
25 23 26 1
26 26 27 1
27 27 28 1
28 28 29 2
29 28 30 1
30 30 31 1
31 31 32 1
32 31 34 1
33 32 33 2
34 32 39 1
35 34 35 1
36 35 36 1
37 36 37 2
38 36 38 1
39 39 40 1
40 40 41 1
41 41 42 2
42 43 44 1
43 44 45 1
44 44 47 1
45 45 46 2
46 47 48 1
47 48 49 2
48 48 50 1
49 49 51 1
50 50 52 2
51 51 53 2
52 52 53 1
53 53 54 1
54 55 56 1
55 56 57 1
56 57 58 2
57 57 59 1
58 59 60 1
59 60 61 1
60 60 63 1
61 61 62 2
62 63 64 1
63 64 65 1
64 64 66 2
65 67 68 1
66 68 69 1
67 68 71 1
68 69 70 2
69 71 72 1
70 72 73 1
71 72 74 2
72 75 76 1
73 76 77 1
74 76 79 1
75 77 78 2
76 77 85 1
77 79 80 1
78 80 81 2
79 80 82 1
80 81 84 1
81 82 83 2
82 83 84 1
83 85 86 1
84 86 87 1
85 86 89 1
86 87 88 2
87 87 94 1
88 89 90 1
89 90 91 1
90 91 92 1
91 92 93 1
92 94 95 1
93 95 96 1
94 95 98 1
95 96 97 2
96 96 99 1
97 99 100 1
98 100 101 1
99 100 103 1
100 101 102 2
101 101 107 1
102 103 104 1
103 104 105 1
104 104 106 2
105 107 108 1
106 108 109 1
107 108 111 1
108 109 110 2
109 109 117 1
110 111 112 1
111 112 113 2
112 112 114 1
113 113 116 1
114 114 115 2
115 115 116 1
116 117 118 1
117 118 119 1
118 118 121 1
119 119 120 2
120 121 122 1
121 123 124 1
122 124 125 1
123 124 127 1
124 125 126 2
125 127 128 1
126 128 129 2
127 128 130 1
128 129 131 1
129 130 132 2
130 131 133 2
131 132 133 1
132 133 134 1
133 135 136 1
134 136 137 1
135 136 139 1
136 137 138 2
137 139 140 1
138 140 141 2
139 140 142 1
140 141 145 1
141 142 143 2
142 142 144 1
143 143 146 1
144 144 147 2
145 143 145 1
146 146 148 2
147 147 148 1
148 149 150 1
149 150 151 1
150 150 153 1
151 151 152 2
152 153 154 1
153 154 155 1
154 155 156 2
155 155 157 1
@<TRIPOS>SUBSTRUCTURE
1	ILE223	1	RESIDUE	1 A	ILE
2	SER224	9	RESIDUE	1 A	SER
3	SER225	15	RESIDUE	1 A	SER
4	ALA226	21	RESIDUE	1 A	ALA
5	GLY227	26	RESIDUE	1 A	GLY
6	GLU228	30	RESIDUE	1 A	GLU
7	GLY229	39	RESIDUE	1 A	GLY
8	TYR245	43	RESIDUE	1 A	TYR
9	GLY264	55	RESIDUE	1 A	GLY
10	ASN265	59	RESIDUE	1 A	ASN
11	ASN282	67	RESIDUE	1 A	ASN
12	HIS293	75	RESIDUE	1 A	HIS
13	LYS294	85	RESIDUE	1 A	LYS
14	ALA295	94	RESIDUE	1 A	ALA
15	ASN296	99	RESIDUE	1 A	ASN
16	HIS297	107	RESIDUE	1 A	HIS
17	SER298	117	RESIDUE	1 A	SER
18	TYR335	123	RESIDUE	1 A	TYR
19	TRP352	135	RESIDUE	1 A	TRP
20	GLU356	149	RESIDUE	1 A	GLU
