# created with PyMOL 2.5.0
@<TRIPOS>MOLECULE
4pxm
153 140 19              
SMALL
USER_CHARGES
@<TRIPOS>ATOM
1	   N	32.321	-6.872	6.048	N.3	1	MET343	0.000	
2	  CA	31.912	-5.514	6.463	C.3	1	MET343	0.000	
3	   C	32.225	-4.498	5.380	C.2	1	MET343	0.000	
4	   O	31.475	-3.535	5.207	O.2	1	MET343	0.000	
5	  CB	32.599	-5.081	7.732	C.3	1	MET343	0.000	
6	  CG	31.978	-5.702	9.001	C.3	1	MET343	0.000	
7	  SD	30.198	-5.342	9.197	S.3	1	MET343	0.000	
8	  CE	30.093	-3.566	9.010	C.3	1	MET343	0.000	
9	   N	29.410	-4.712	2.761	N.3	2	LEU346	0.000	
10	  CA	28.166	-4.151	3.240	C.3	2	LEU346	0.000	
11	   C	28.214	-2.636	3.369	C.2	2	LEU346	0.000	
12	   O	27.194	-1.965	3.088	O.2	2	LEU346	0.000	
13	  CB	27.746	-4.813	4.589	C.3	2	LEU346	0.000	
14	  CG	27.522	-6.327	4.596	C.3	2	LEU346	0.000	
15	 CD1	27.210	-6.868	5.995	C.3	2	LEU346	0.000	
16	 CD2	26.421	-6.724	3.628	C.3	2	LEU346	0.000	
17	   N	29.322	-2.078	3.909	N.am	3	THR347	0.000	
18	  CA	29.434	-0.619	3.973	C.3	3	THR347	0.000	
19	   C	29.590	0.050	2.602	C.2	3	THR347	0.000	
20	   O	29.061	1.125	2.385	O.2	3	THR347	0.000	
21	  CB	30.553	-0.146	4.915	C.3	3	THR347	0.000	
22	 CG2	30.260	-0.599	6.374	C.3	3	THR347	0.000	
23	 OG1	31.750	-0.734	4.506	O.3	3	THR347	0.000	
24	   N	28.237	-1.077	-0.126	N.3	4	LEU349	0.000	
25	  CA	26.874	-1.081	-0.675	C.3	4	LEU349	0.000	
26	   C	26.044	0.025	-0.038	C.2	4	LEU349	0.000	
27	   O	25.299	0.754	-0.727	O.2	4	LEU349	0.000	
28	  CB	26.217	-2.438	-0.428	C.3	4	LEU349	0.000	
29	  CG	24.795	-2.648	-0.928	C.3	4	LEU349	0.000	
30	 CD1	24.780	-2.544	-2.475	C.3	4	LEU349	0.000	
31	 CD2	24.374	-4.086	-0.499	C.3	4	LEU349	0.000	
32	   N	26.107	0.130	1.293	N.am	5	ALA350	0.000	
33	  CA	25.277	1.097	1.986	C.3	5	ALA350	0.000	
34	   C	25.589	2.478	1.478	C.2	5	ALA350	0.000	
35	   O	24.674	3.302	1.333	O.2	5	ALA350	0.000	
36	  CB	25.452	1.027	3.520	C.3	5	ALA350	0.000	
37	   N	24.040	3.160	-1.797	N.3	6	GLU353	0.000	
38	  CA	22.596	3.334	-1.630	C.3	6	GLU353	0.000	
39	   C	22.183	4.685	-1.011	C.2	6	GLU353	0.000	
40	   O	21.067	5.187	-1.278	O.2	6	GLU353	0.000	
41	  CB	22.004	2.198	-0.798	C.3	6	GLU353	0.000	
42	  CG	22.060	0.834	-1.462	C.3	6	GLU353	0.000	
43	  CD	21.388	-0.184	-0.580	C.2	6	GLU353	0.000	
44	 OE1	22.083	-0.745	0.304	O.co2	6	GLU353	0.000	
45	 OE2	20.137	-0.341	-0.670	O.co2	6	GLU353	0.000	
46	   N	19.332	4.333	8.385	N.3	7	LEU384	0.000	
47	  CA	19.506	2.905	8.601	C.3	7	LEU384	0.000	
48	   C	18.177	2.125	8.668	C.2	7	LEU384	0.000	
49	   O	18.072	1.011	8.114	O.2	7	LEU384	0.000	
50	  CB	20.398	2.608	9.835	C.3	7	LEU384	0.000	
51	  CG	20.768	1.075	9.974	C.3	7	LEU384	0.000	
52	 CD1	21.379	0.385	8.708	C.3	7	LEU384	0.000	
53	 CD2	21.780	0.955	11.148	C.3	7	LEU384	0.000	
54	   N	17.368	1.693	4.943	N.3	8	LEU387	0.000	
55	  CA	18.131	0.608	4.317	C.3	8	LEU387	0.000	
56	   C	17.577	-0.740	4.733	C.2	8	LEU387	0.000	
57	   O	17.457	-1.688	3.899	O.2	8	LEU387	0.000	
58	  CB	19.653	0.669	4.653	C.3	8	LEU387	0.000	
59	  CG	20.388	1.911	4.128	C.3	8	LEU387	0.000	
60	 CD1	21.871	1.819	4.488	C.3	8	LEU387	0.000	
61	 CD2	20.224	2.025	2.604	C.3	8	LEU387	0.000	
62	   N	17.286	-0.870	6.026	N.am	9	MET388	0.000	
63	  CA	16.830	-2.165	6.535	C.3	9	MET388	0.000	
64	   C	15.465	-2.518	5.953	C.2	9	MET388	0.000	
65	   O	15.198	-3.671	5.693	O.2	9	MET388	0.000	
66	  CB	16.741	-2.119	8.072	C.3	9	MET388	0.000	
67	  CG	18.183	-2.211	8.662	C.3	9	MET388	0.000	
68	  SD	18.136	-2.148	10.470	S.3	9	MET388	0.000	
69	  CE	19.845	-2.725	10.792	C.3	9	MET388	0.000	
70	   N	15.921	-3.775	2.638	N.3	10	LEU391	0.000	
71	  CA	16.576	-5.109	2.623	C.3	10	LEU391	0.000	
72	   C	15.541	-6.213	2.954	C.2	10	LEU391	0.000	
73	   O	15.466	-7.283	2.296	O.2	10	LEU391	0.000	
74	  CB	17.722	-5.142	3.649	C.3	10	LEU391	0.000	
75	  CG	18.258	-6.546	3.928	C.3	10	LEU391	0.000	
76	 CD1	18.968	-7.081	2.696	C.3	10	LEU391	0.000	
77	 CD2	19.177	-6.524	5.139	C.3	10	LEU391	0.000	
78	   N	13.258	-6.767	-0.127	N.3	11	ARG394	0.000	
79	  CA	13.986	-7.496	-1.188	C.3	11	ARG394	0.000	
80	   C	14.084	-8.951	-0.803	C.2	11	ARG394	0.000	
81	   O	14.230	-9.804	-1.675	O.2	11	ARG394	0.000	
82	  CB	15.485	-6.956	-1.341	C.3	11	ARG394	0.000	
83	  CG	15.594	-5.583	-1.941	C.3	11	ARG394	0.000	
84	  CD	17.007	-5.242	-2.409	C.3	11	ARG394	0.000	
85	  NE	18.068	-5.233	-1.388	N.pl3	11	ARG394	0.000	
86	  CZ	18.350	-4.177	-0.610	C.cat	11	ARG394	0.000	
87	 NH1	17.528	-3.165	-0.576	N.pl3	11	ARG394	0.000	
88	 NH2	19.416	-4.169	0.188	N.pl3	11	ARG394	0.000	
89	   N	21.021	-8.823	0.179	N.3	12	PHE404	0.000	
90	  CA	21.660	-7.490	0.257	C.3	12	PHE404	0.000	
91	   C	21.795	-6.928	-1.136	C.2	12	PHE404	0.000	
92	   O	21.531	-5.739	-1.363	O.2	12	PHE404	0.000	
93	  CB	23.006	-7.559	0.914	C.3	12	PHE404	0.000	
94	  CG	22.944	-7.690	2.410	C.2	12	PHE404	0.000	
95	 CD1	22.808	-6.549	3.230	C.2	12	PHE404	0.000	
96	 CD2	22.918	-8.955	2.992	C.2	12	PHE404	0.000	
97	 CE1	22.710	-6.679	4.596	C.2	12	PHE404	0.000	
98	 CE2	22.831	-9.084	4.385	C.2	12	PHE404	0.000	
99	  CZ	22.744	-7.968	5.176	C.2	12	PHE404	0.000	
100	   N	27.116	-9.733	14.296	N.3	13	MET421	0.000	
101	  CA	26.132	-9.520	13.216	C.3	13	MET421	0.000	
102	   C	25.026	-10.549	13.192	C.2	13	MET421	0.000	
103	   O	23.866	-10.205	12.895	O.2	13	MET421	0.000	
104	  CB	26.753	-9.361	11.829	C.3	13	MET421	0.000	
105	  CG	25.806	-8.562	10.830	C.3	13	MET421	0.000	
106	  SD	26.880	-7.758	9.660	S.3	13	MET421	0.000	
107	  CE	27.420	-9.218	8.776	C.3	13	MET421	0.000	
108	   N	21.704	-9.485	14.643	N.3	14	ILE424	0.000	
109	  CA	21.023	-8.581	13.742	C.3	14	ILE424	0.000	
110	   C	20.462	-9.296	12.482	C.2	14	ILE424	0.000	
111	   O	19.340	-8.987	12.093	O.2	14	ILE424	0.000	
112	  CB	21.920	-7.378	13.374	C.3	14	ILE424	0.000	
113	 CG1	22.347	-6.630	14.664	C.3	14	ILE424	0.000	
114	 CG2	21.168	-6.438	12.439	C.3	14	ILE424	0.000	
115	 CD1	23.597	-5.788	14.505	C.3	14	ILE424	0.000	
116	   N	16.476	-9.312	11.231	N.3	15	LEU428	0.000	
117	  CA	16.062	-9.013	9.836	C.3	15	LEU428	0.000	
118	   C	15.325	-10.133	9.175	C.2	15	LEU428	0.000	
119	   O	14.285	-9.888	8.489	O.2	15	LEU428	0.000	
120	  CB	17.234	-8.545	8.949	C.3	15	LEU428	0.000	
121	  CG	17.894	-7.273	9.491	C.3	15	LEU428	0.000	
122	 CD1	19.365	-7.199	9.050	C.3	15	LEU428	0.000	
123	 CD2	17.087	-6.001	9.053	C.3	15	LEU428	0.000	
124	   N	21.821	-2.037	14.938	N.3	16	GLY521	0.000	
125	  CA	22.727	-1.941	13.797	C.3	16	GLY521	0.000	
126	   C	23.662	-0.778	13.859	C.2	16	GLY521	0.000	
127	   O	24.835	-0.865	13.435	O.2	16	GLY521	0.000	
128	   N	26.371	-1.645	16.320	N.3	17	HIS524	0.000	
129	  CA	27.250	-2.585	15.632	C.3	17	HIS524	0.000	
130	   C	28.234	-1.913	14.688	C.2	17	HIS524	0.000	
131	   O	29.455	-2.151	14.747	O.2	17	HIS524	0.000	
132	  CB	26.456	-3.633	14.870	C.3	17	HIS524	0.000	
133	  CG	27.331	-4.676	14.292	C.2	17	HIS524	0.000	
134	 CD2	27.861	-5.830	14.861	C.2	17	HIS524	0.000	
135	 ND1	27.759	-4.634	13.006	N.2	17	HIS524	0.000	
136	 CE1	28.582	-5.702	12.778	C.2	17	HIS524	0.000	
137	 NE2	28.648	-6.426	13.917	N.pl3	17	HIS524	0.000	
138	   N	27.741	-1.021	13.865	N.am	18	LEU525	0.000	
139	  CA	28.588	-0.334	12.897	C.3	18	LEU525	0.000	
140	   C	29.609	0.544	13.614	C.2	18	LEU525	0.000	
141	   O	30.813	0.581	13.267	O.2	18	LEU525	0.000	
142	  CB	27.699	0.560	11.967	C.3	18	LEU525	0.000	
143	  CG	28.483	1.320	10.925	C.3	18	LEU525	0.000	
144	 CD1	29.350	0.324	10.089	C.3	18	LEU525	0.000	
145	 CD2	27.540	2.152	10.064	C.3	18	LEU525	0.000	
146	   N	32.397	-1.623	14.829	N.3	19	MET528	0.000	
147	  CA	33.250	-2.057	13.735	C.3	19	MET528	0.000	
148	   C	34.204	-0.913	13.415	C.2	19	MET528	0.000	
149	   O	35.370	-1.147	13.121	O.2	19	MET528	0.000	
150	  CB	32.388	-2.343	12.512	C.3	19	MET528	0.000	
151	  CG	31.537	-3.617	12.689	C.3	19	MET528	0.000	
152	  SD	32.550	-5.095	12.934	S.3	19	MET528	0.000	
153	  CE	32.562	-5.337	14.693	C.3	19	MET528	0.000	
@<TRIPOS>BOND
1 1 2 1
2 2 3 1
3 2 5 1
4 3 4 2
5 5 6 1
6 6 7 1
7 7 8 1
8 9 10 1
9 10 11 1
10 10 13 1
11 11 12 2
12 11 17 1
13 13 14 1
14 14 15 1
15 14 16 1
16 17 18 1
17 18 19 1
18 18 21 1
19 19 20 2
20 21 22 1
21 21 23 1
22 24 25 1
23 25 26 1
24 25 28 1
25 26 27 2
26 26 32 1
27 28 29 1
28 29 30 1
29 29 31 1
30 32 33 1
31 33 34 1
32 33 36 1
33 34 35 2
34 37 38 1
35 38 39 1
36 38 41 1
37 39 40 2
38 41 42 1
39 42 43 1
40 43 44 2
41 43 45 1
42 46 47 1
43 47 48 1
44 47 50 1
45 48 49 2
46 50 51 1
47 51 52 1
48 51 53 1
49 54 55 1
50 55 56 1
51 55 58 1
52 56 57 2
53 56 62 1
54 58 59 1
55 59 60 1
56 59 61 1
57 62 63 1
58 63 64 1
59 63 66 1
60 64 65 2
61 66 67 1
62 67 68 1
63 68 69 1
64 70 71 1
65 71 72 1
66 71 74 1
67 72 73 2
68 74 75 1
69 75 76 1
70 75 77 1
71 78 79 1
72 79 80 1
73 79 82 1
74 80 81 2
75 82 83 1
76 83 84 1
77 84 85 1
78 85 86 1
79 86 87 2
80 86 88 1
81 89 90 1
82 90 91 1
83 90 93 1
84 91 92 2
85 93 94 1
86 94 95 2
87 94 96 1
88 95 97 1
89 96 98 2
90 97 99 2
91 98 99 1
92 100 101 1
93 101 102 1
94 101 104 1
95 102 103 2
96 104 105 1
97 105 106 1
98 106 107 1
99 108 109 1
100 109 110 1
101 109 112 1
102 110 111 2
103 112 113 1
104 112 114 1
105 113 115 1
106 116 117 1
107 117 118 1
108 117 120 1
109 118 119 2
110 120 121 1
111 121 122 1
112 121 123 1
113 124 125 1
114 125 126 1
115 126 127 2
116 128 129 1
117 129 130 1
118 129 132 1
119 130 131 2
120 130 138 1
121 132 133 1
122 133 134 2
123 133 135 1
124 134 137 1
125 135 136 2
126 136 137 1
127 138 139 1
128 139 140 1
129 139 142 1
130 140 141 2
131 142 143 1
132 143 144 1
133 143 145 1
134 146 147 1
135 147 148 1
136 147 150 1
137 148 149 2
138 150 151 1
139 151 152 1
140 152 153 1
@<TRIPOS>SUBSTRUCTURE
1	MET343	1	RESIDUE	1 A	MET
2	LEU346	9	RESIDUE	1 A	LEU
3	THR347	17	RESIDUE	1 A	THR
4	LEU349	24	RESIDUE	1 A	LEU
5	ALA350	32	RESIDUE	1 A	ALA
6	GLU353	37	RESIDUE	1 A	GLU
7	LEU384	46	RESIDUE	1 A	LEU
8	LEU387	54	RESIDUE	1 A	LEU
9	MET388	62	RESIDUE	1 A	MET
10	LEU391	70	RESIDUE	1 A	LEU
11	ARG394	78	RESIDUE	1 A	ARG
12	PHE404	89	RESIDUE	1 A	PHE
13	MET421	100	RESIDUE	1 A	MET
14	ILE424	108	RESIDUE	1 A	ILE
15	LEU428	116	RESIDUE	1 A	LEU
16	GLY521	124	RESIDUE	1 A	GLY
17	HIS524	128	RESIDUE	1 A	HIS
18	LEU525	138	RESIDUE	1 A	LEU
19	MET528	146	RESIDUE	1 A	MET
