# created with PyMOL 2.5.0
@<TRIPOS>MOLECULE
5fqp
207 198 25              
SMALL
USER_CHARGES
@<TRIPOS>ATOM
1	   N	17.913	15.587	60.690	N.3	1	MET343	0.000	
2	  CA	17.390	15.772	62.050	C.3	1	MET343	0.000	
3	   C	18.515	15.775	63.087	C.2	1	MET343	0.000	
4	   O	18.459	16.516	64.066	O.2	1	MET343	0.000	
5	  CB	16.357	14.701	62.398	C.3	1	MET343	0.000	
6	  CG	15.626	14.955	63.708	C.3	1	MET343	0.000	
7	  SD	14.640	16.475	63.695	S.3	1	MET343	0.000	
8	  CE	13.381	15.952	62.549	C.3	1	MET343	0.000	
9	   N	20.138	19.181	62.776	N.3	2	LEU346	0.000	
10	  CA	19.251	20.207	63.326	C.3	2	LEU346	0.000	
11	   C	19.164	20.132	64.854	C.2	2	LEU346	0.000	
12	   O	19.124	21.164	65.524	O.2	2	LEU346	0.000	
13	  CB	17.859	20.128	62.681	C.3	2	LEU346	0.000	
14	  CG	17.798	20.477	61.183	C.3	2	LEU346	0.000	
15	 CD1	16.367	20.423	60.677	C.3	2	LEU346	0.000	
16	 CD2	18.397	21.841	60.879	C.3	2	LEU346	0.000	
17	   N	19.142	18.916	65.394	N.am	3	THR347	0.000	
18	  CA	19.090	18.703	66.843	C.3	3	THR347	0.000	
19	   C	20.374	19.193	67.515	C.2	3	THR347	0.000	
20	   O	20.317	19.862	68.545	O.2	3	THR347	0.000	
21	  CB	18.849	17.213	67.184	C.3	3	THR347	0.000	
22	 CG2	18.801	16.982	68.687	C.3	3	THR347	0.000	
23	 OG1	17.617	16.771	66.593	O.3	3	THR347	0.000	
24	   N	22.495	21.453	66.420	N.3	4	LEU349	0.000	
25	  CA	22.485	22.912	66.321	C.3	4	LEU349	0.000	
26	   C	21.596	23.524	67.411	C.2	4	LEU349	0.000	
27	   O	22.030	24.409	68.157	O.2	4	LEU349	0.000	
28	  CB	22.007	23.344	64.926	C.3	4	LEU349	0.000	
29	  CG	22.000	24.849	64.620	C.3	4	LEU349	0.000	
30	 CD1	23.403	25.434	64.675	C.3	4	LEU349	0.000	
31	 CD2	21.368	25.121	63.253	C.3	4	LEU349	0.000	
32	   N	20.367	23.024	67.513	N.am	5	ALA350	0.000	
33	  CA	19.434	23.477	68.545	C.3	5	ALA350	0.000	
34	   C	19.990	23.301	69.962	C.2	5	ALA350	0.000	
35	   O	19.793	24.175	70.805	O.2	5	ALA350	0.000	
36	  CB	18.095	22.766	68.413	C.3	5	ALA350	0.000	
37	   N	20.667	22.179	70.213	N.am	6	ASP351	0.000	
38	  CA	21.310	21.914	71.516	C.3	6	ASP351	0.000	
39	   C	22.277	23.037	71.886	C.2	6	ASP351	0.000	
40	   O	22.227	23.576	72.993	O.2	6	ASP351	0.000	
41	  CB	22.106	20.604	71.486	C.3	6	ASP351	0.000	
42	  CG	21.237	19.361	71.591	C.2	6	ASP351	0.000	
43	 OD1	20.018	19.475	71.827	O.co2	6	ASP351	0.000	
44	 OD2	21.802	18.248	71.439	O.co2	6	ASP351	0.000	
45	   N	22.571	26.093	70.433	N.3	7	GLU353	0.000	
46	  CA	21.879	27.387	70.455	C.3	7	GLU353	0.000	
47	   C	21.171	27.654	71.786	C.2	7	GLU353	0.000	
48	   O	21.085	28.802	72.234	O.2	7	GLU353	0.000	
49	  CB	20.851	27.467	69.324	C.3	7	GLU353	0.000	
50	  CG	21.440	27.697	67.943	C.3	7	GLU353	0.000	
51	  CD	20.358	27.886	66.895	C.2	7	GLU353	0.000	
52	 OE1	19.668	26.896	66.558	O.co2	7	GLU353	0.000	
53	 OE2	20.191	29.029	66.417	O.co2	7	GLU353	0.000	
54	   N	11.340	28.562	74.282	N.3	8	TRP383	0.000	
55	  CA	12.642	28.279	73.650	C.3	8	TRP383	0.000	
56	   C	12.531	27.973	72.152	C.2	8	TRP383	0.000	
57	   O	13.354	28.446	71.371	O.2	8	TRP383	0.000	
58	  CB	13.414	27.181	74.393	C.3	8	TRP383	0.000	
59	  CG	12.833	25.831	74.269	C.2	8	TRP383	0.000	
60	 CD1	11.922	25.263	75.085	C.2	8	TRP383	0.000	
61	 CD2	13.137	24.861	73.261	C.2	8	TRP383	0.000	
62	 CE2	12.352	23.727	73.527	C.2	8	TRP383	0.000	
63	 CE3	13.985	24.851	72.149	C.2	8	TRP383	0.000	
64	 NE1	11.621	23.996	74.653	N.pl3	8	TRP383	0.000	
65	 CZ2	12.388	22.585	72.728	C.2	8	TRP383	0.000	
66	 CZ3	14.026	23.708	71.356	C.2	8	TRP383	0.000	
67	 CH2	13.232	22.596	71.650	C.2	8	TRP383	0.000	
68	   N	11.511	27.217	71.745	N.am	9	LEU384	0.000	
69	  CA	11.403	26.837	70.329	C.3	9	LEU384	0.000	
70	   C	10.930	28.011	69.471	C.2	9	LEU384	0.000	
71	   O	11.414	28.199	68.352	O.2	9	LEU384	0.000	
72	  CB	10.545	25.584	70.133	C.3	9	LEU384	0.000	
73	  CG	10.477	25.053	68.689	C.3	9	LEU384	0.000	
74	 CD1	11.863	24.771	68.103	C.3	9	LEU384	0.000	
75	 CD2	9.602	23.809	68.619	C.3	9	LEU384	0.000	
76	   N	14.099	29.998	68.932	N.3	10	LEU387	0.000	
77	  CA	14.911	29.402	67.863	C.3	10	LEU387	0.000	
78	   C	14.331	29.710	66.490	C.2	10	LEU387	0.000	
79	   O	15.067	30.015	65.548	O.2	10	LEU387	0.000	
80	  CB	15.027	27.892	68.023	C.3	10	LEU387	0.000	
81	  CG	15.858	27.356	69.182	C.3	10	LEU387	0.000	
82	 CD1	15.953	25.843	69.055	C.3	10	LEU387	0.000	
83	 CD2	17.242	27.982	69.224	C.3	10	LEU387	0.000	
84	   N	13.009	29.639	66.392	N.am	11	MET388	0.000	
85	  CA	12.320	29.836	65.113	C.3	11	MET388	0.000	
86	   C	12.363	31.268	64.623	C.2	11	MET388	0.000	
87	   O	12.644	31.498	63.448	O.2	11	MET388	0.000	
88	  CB	10.887	29.340	65.198	C.3	11	MET388	0.000	
89	  CG	10.800	27.829	65.142	C.3	11	MET388	0.000	
90	  SD	9.102	27.276	65.327	S.3	11	MET388	0.000	
91	  CE	9.283	25.577	64.799	C.3	11	MET388	0.000	
92	   N	15.823	31.840	63.355	N.3	12	LEU391	0.000	
93	  CA	15.993	31.199	62.054	C.3	12	LEU391	0.000	
94	   C	15.360	32.023	60.935	C.2	12	LEU391	0.000	
95	   O	15.960	32.219	59.874	O.2	12	LEU391	0.000	
96	  CB	15.389	29.789	62.083	C.3	12	LEU391	0.000	
97	  CG	15.348	29.052	60.746	C.3	12	LEU391	0.000	
98	 CD1	16.758	28.758	60.257	C.3	12	LEU391	0.000	
99	 CD2	14.542	27.764	60.874	C.3	12	LEU391	0.000	
100	   N	17.504	35.225	60.312	N.3	13	ARG394	0.000	
101	  CA	18.716	34.848	59.552	C.3	13	ARG394	0.000	
102	   C	18.428	34.558	58.076	C.2	13	ARG394	0.000	
103	   O	19.296	34.763	57.215	O.2	13	ARG394	0.000	
104	  CB	19.369	33.584	60.137	C.3	13	ARG394	0.000	
105	  CG	20.001	33.736	61.501	C.3	13	ARG394	0.000	
106	  CD	20.977	32.604	61.782	C.3	13	ARG394	0.000	
107	  NE	20.375	31.269	61.892	N.pl3	13	ARG394	0.000	
108	  CZ	19.702	30.812	62.953	C.cat	13	ARG394	0.000	
109	 NH1	19.472	31.585	64.001	N.pl3	13	ARG394	0.000	
110	 NH2	19.239	29.570	62.956	N.pl3	13	ARG394	0.000	
111	   N	19.865	27.850	58.453	N.3	14	PHE404	0.000	
112	  CA	20.038	27.261	59.774	C.3	14	PHE404	0.000	
113	   C	21.366	27.695	60.358	C.2	14	PHE404	0.000	
114	   O	21.449	28.041	61.534	O.2	14	PHE404	0.000	
115	  CB	19.934	25.739	59.702	C.3	14	PHE404	0.000	
116	  CG	18.532	25.258	59.576	C.2	14	PHE404	0.000	
117	 CD1	17.719	25.182	60.702	C.2	14	PHE404	0.000	
118	 CD2	18.001	24.922	58.347	C.2	14	PHE404	0.000	
119	 CE1	16.410	24.759	60.599	C.2	14	PHE404	0.000	
120	 CE2	16.687	24.497	58.239	C.2	14	PHE404	0.000	
121	  CZ	15.890	24.415	59.367	C.2	14	PHE404	0.000	
122	   N	8.401	17.317	58.126	N.3	15	MET421	0.000	
123	  CA	9.298	18.469	58.204	C.3	15	MET421	0.000	
124	   C	9.045	19.504	57.098	C.2	15	MET421	0.000	
125	   O	9.260	20.694	57.313	O.2	15	MET421	0.000	
126	  CB	10.763	18.012	58.201	C.3	15	MET421	0.000	
127	  CG	11.775	19.122	58.486	C.3	15	MET421	0.000	
128	  SD	11.692	19.858	60.138	S.3	15	MET421	0.000	
129	  CE	12.501	18.593	61.096	C.3	15	MET421	0.000	
130	   N	6.603	22.149	58.224	N.3	16	ILE424	0.000	
131	  CA	7.253	23.105	59.127	C.3	16	ILE424	0.000	
132	   C	8.176	24.061	58.343	C.2	16	ILE424	0.000	
133	   O	8.141	25.277	58.547	O.2	16	ILE424	0.000	
134	  CB	8.004	22.352	60.252	C.3	16	ILE424	0.000	
135	 CG1	6.982	21.669	61.170	C.3	16	ILE424	0.000	
136	 CG2	8.873	23.294	61.075	C.3	16	ILE424	0.000	
137	 CD1	7.562	20.586	62.047	C.3	16	ILE424	0.000	
138	   N	8.994	23.510	57.446	N.am	17	PHE425	0.000	
139	  CA	9.835	24.334	56.561	C.3	17	PHE425	0.000	
140	   C	8.985	25.378	55.809	C.2	17	PHE425	0.000	
141	   O	9.343	26.557	55.748	O.2	17	PHE425	0.000	
142	  CB	10.618	23.459	55.563	C.3	17	PHE425	0.000	
143	  CG	11.951	22.950	56.084	C.2	17	PHE425	0.000	
144	 CD1	12.154	22.681	57.441	C.2	17	PHE425	0.000	
145	 CD2	12.999	22.707	55.199	C.2	17	PHE425	0.000	
146	 CE1	13.373	22.201	57.902	C.2	17	PHE425	0.000	
147	 CE2	14.219	22.219	55.653	C.2	17	PHE425	0.000	
148	  CZ	14.412	21.971	57.006	C.2	17	PHE425	0.000	
149	   N	7.864	28.296	58.085	N.3	18	LEU428	0.000	
150	  CA	9.019	29.137	58.402	C.3	18	LEU428	0.000	
151	   C	9.414	30.022	57.200	C.2	18	LEU428	0.000	
152	   O	9.703	31.212	57.358	O.2	18	LEU428	0.000	
153	  CB	10.198	28.254	58.852	C.3	18	LEU428	0.000	
154	  CG	10.007	27.579	60.212	C.3	18	LEU428	0.000	
155	 CD1	10.966	26.415	60.399	C.3	18	LEU428	0.000	
156	 CD2	10.178	28.580	61.344	C.3	18	LEU428	0.000	
157	   N	5.929	22.226	65.847	N.3	19	GLY521	0.000	
158	  CA	7.267	21.689	66.087	C.3	19	GLY521	0.000	
159	   C	7.361	20.795	67.316	C.2	19	GLY521	0.000	
160	   O	7.954	19.704	67.253	O.2	19	GLY521	0.000	
161	   N	5.995	17.403	66.784	N.3	20	HIS524	0.000	
162	  CA	6.948	16.577	66.061	C.3	20	HIS524	0.000	
163	   C	7.973	15.975	67.019	C.2	20	HIS524	0.000	
164	   O	8.202	14.767	67.002	O.2	20	HIS524	0.000	
165	  CB	7.643	17.401	64.979	C.3	20	HIS524	0.000	
166	  CG	8.500	16.590	64.064	C.2	20	HIS524	0.000	
167	 CD2	9.756	16.108	64.215	C.2	20	HIS524	0.000	
168	 ND1	8.079	16.183	62.816	N.2	20	HIS524	0.000	
169	 CE1	9.041	15.488	62.237	C.2	20	HIS524	0.000	
170	 NE2	10.069	15.430	63.064	N.pl3	20	HIS524	0.000	
171	   N	8.563	16.817	67.861	N.am	21	LEU525	0.000	
172	  CA	9.579	16.379	68.817	C.3	21	LEU525	0.000	
173	   C	9.040	15.367	69.839	C.2	21	LEU525	0.000	
174	   O	9.704	14.368	70.131	O.2	21	LEU525	0.000	
175	  CB	10.197	17.578	69.539	C.3	21	LEU525	0.000	
176	  CG	10.945	18.606	68.674	C.3	21	LEU525	0.000	
177	 CD1	11.480	19.727	69.548	C.3	21	LEU525	0.000	
178	 CD2	12.081	17.970	67.878	C.3	21	LEU525	0.000	
179	   N	16.473	12.058	75.030	N.3	22	ASN532	0.000	
180	  CA	17.489	13.003	74.530	C.3	22	ASN532	0.000	
181	   C	16.914	14.099	73.631	C.2	22	ASN532	0.000	
182	   O	17.664	14.826	72.980	O.2	22	ASN532	0.000	
183	  CB	18.591	12.249	73.767	C.3	22	ASN532	0.000	
184	  CG	19.531	11.496	74.686	C.2	22	ASN532	0.000	
185	 ND2	20.452	10.741	74.096	N.pl3	22	ASN532	0.000	
186	 OD1	19.437	11.593	75.910	O.2	22	ASN532	0.000	
187	   N	15.585	14.206	73.594	N.am	23	VAL533	0.000	
188	  CA	14.896	15.226	72.810	C.3	23	VAL533	0.000	
189	   C	13.967	16.035	73.726	C.2	23	VAL533	0.000	
190	   O	13.309	15.474	74.607	O.2	23	VAL533	0.000	
191	  CB	14.120	14.589	71.629	C.3	23	VAL533	0.000	
192	 CG1	13.250	15.608	70.900	C.3	23	VAL533	0.000	
193	 CG2	15.096	13.956	70.644	C.3	23	VAL533	0.000	
194	   N	13.925	17.346	73.483	N.am	24	VAL534	0.000	
195	  CA	13.238	18.344	74.321	C.3	24	VAL534	0.000	
196	   C	13.962	18.555	75.657	C.2	24	VAL534	0.000	
197	   O	14.067	17.620	76.457	O.2	24	VAL534	0.000	
198	  CB	11.750	18.010	74.586	C.3	24	VAL534	0.000	
199	 CG1	11.088	19.135	75.376	C.3	24	VAL534	0.000	
200	 CG2	11.007	17.800	73.278	C.3	24	VAL534	0.000	
201	   N	14.449	19.787	75.912	N.am	25	PRO535	0.000	
202	  CA	15.142	20.041	77.171	C.3	25	PRO535	0.000	
203	   C	14.196	19.971	78.360	C.2	25	PRO535	0.000	
204	   O	13.177	20.657	78.377	O.2	25	PRO535	0.000	
205	  CB	15.669	21.468	77.001	C.3	25	PRO535	0.000	
206	  CG	14.718	22.106	76.053	C.3	25	PRO535	0.000	
207	  CD	14.322	21.014	75.104	C.3	25	PRO535	0.000	
@<TRIPOS>BOND
1 1 2 1
2 2 3 1
3 2 5 1
4 3 4 2
5 5 6 1
6 6 7 1
7 7 8 1
8 9 10 1
9 10 11 1
10 10 13 1
11 11 12 2
12 11 17 1
13 13 14 1
14 14 15 1
15 14 16 1
16 17 18 1
17 18 19 1
18 18 21 1
19 19 20 2
20 21 22 1
21 21 23 1
22 24 25 1
23 25 26 1
24 25 28 1
25 26 27 2
26 26 32 1
27 28 29 1
28 29 30 1
29 29 31 1
30 32 33 1
31 33 34 1
32 33 36 1
33 34 35 2
34 34 37 1
35 37 38 1
36 38 39 1
37 38 41 1
38 39 40 2
39 41 42 1
40 42 43 2
41 42 44 1
42 45 46 1
43 46 47 1
44 46 49 1
45 47 48 2
46 49 50 1
47 50 51 1
48 51 52 2
49 51 53 1
50 54 55 1
51 55 56 1
52 55 58 1
53 56 57 2
54 56 68 1
55 58 59 1
56 59 60 2
57 59 61 1
58 60 64 1
59 61 62 2
60 61 63 1
61 62 65 1
62 63 66 2
63 62 64 1
64 65 67 2
65 66 67 1
66 68 69 1
67 69 70 1
68 69 72 1
69 70 71 2
70 72 73 1
71 73 74 1
72 73 75 1
73 76 77 1
74 77 78 1
75 77 80 1
76 78 79 2
77 78 84 1
78 80 81 1
79 81 82 1
80 81 83 1
81 84 85 1
82 85 86 1
83 85 88 1
84 86 87 2
85 88 89 1
86 89 90 1
87 90 91 1
88 92 93 1
89 93 94 1
90 93 96 1
91 94 95 2
92 96 97 1
93 97 98 1
94 97 99 1
95 100 101 1
96 101 102 1
97 101 104 1
98 102 103 2
99 104 105 1
100 105 106 1
101 106 107 1
102 107 108 1
103 108 109 2
104 108 110 1
105 111 112 1
106 112 113 1
107 112 115 1
108 113 114 2
109 115 116 1
110 116 117 2
111 116 118 1
112 117 119 1
113 118 120 2
114 119 121 2
115 120 121 1
116 122 123 1
117 123 124 1
118 123 126 1
119 124 125 2
120 126 127 1
121 127 128 1
122 128 129 1
123 130 131 1
124 131 132 1
125 131 134 1
126 132 133 2
127 132 138 1
128 134 135 1
129 134 136 1
130 135 137 1
131 138 139 1
132 139 140 1
133 139 142 1
134 140 141 2
135 142 143 1
136 143 144 2
137 143 145 1
138 144 146 1
139 145 147 2
140 146 148 2
141 147 148 1
142 149 150 1
143 150 151 1
144 150 153 1
145 151 152 2
146 153 154 1
147 154 155 1
148 154 156 1
149 157 158 1
150 158 159 1
151 159 160 2
152 161 162 1
153 162 163 1
154 162 165 1
155 163 164 2
156 163 171 1
157 165 166 1
158 166 167 2
159 166 168 1
160 167 170 1
161 168 169 2
162 169 170 1
163 171 172 1
164 172 173 1
165 172 175 1
166 173 174 2
167 175 176 1
168 176 177 1
169 176 178 1
170 179 180 1
171 180 181 1
172 180 183 1
173 181 182 2
174 181 187 1
175 183 184 1
176 184 185 1
177 184 186 2
178 187 188 1
179 188 189 1
180 188 191 1
181 189 190 2
182 189 194 1
183 191 192 1
184 191 193 1
185 194 195 1
186 195 196 1
187 195 198 1
188 196 197 2
189 196 201 1
190 198 199 1
191 198 200 1
192 201 202 1
193 201 207 1
194 202 203 1
195 202 205 1
196 203 204 2
197 205 206 1
198 206 207 1
@<TRIPOS>SUBSTRUCTURE
1	MET343	1	RESIDUE	1 A	MET
2	LEU346	9	RESIDUE	1 A	LEU
3	THR347	17	RESIDUE	1 A	THR
4	LEU349	24	RESIDUE	1 A	LEU
5	ALA350	32	RESIDUE	1 A	ALA
6	ASP351	37	RESIDUE	1 A	ASP
7	GLU353	45	RESIDUE	1 A	GLU
8	TRP383	54	RESIDUE	1 A	TRP
9	LEU384	68	RESIDUE	1 A	LEU
10	LEU387	76	RESIDUE	1 A	LEU
11	MET388	84	RESIDUE	1 A	MET
12	LEU391	92	RESIDUE	1 A	LEU
13	ARG394	100	RESIDUE	1 A	ARG
14	PHE404	111	RESIDUE	1 A	PHE
15	MET421	122	RESIDUE	1 A	MET
16	ILE424	130	RESIDUE	1 A	ILE
17	PHE425	138	RESIDUE	1 A	PHE
18	LEU428	149	RESIDUE	1 A	LEU
19	GLY521	157	RESIDUE	1 A	GLY
20	HIS524	161	RESIDUE	1 A	HIS
21	LEU525	171	RESIDUE	1 A	LEU
22	ASN532	179	RESIDUE	1 A	ASN
23	VAL533	187	RESIDUE	1 A	VAL
24	VAL534	194	RESIDUE	1 A	VAL
25	PRO535	201	RESIDUE	1 A	PRO
