# created with PyMOL 2.5.0
@<TRIPOS>MOLECULE
5fqr
181 171 22              
SMALL
USER_CHARGES
@<TRIPOS>ATOM
1	   N	17.935	15.826	60.350	N.3	1	MET343	0.000	
2	  CA	17.378	16.038	61.688	C.3	1	MET343	0.000	
3	   C	18.472	16.029	62.753	C.2	1	MET343	0.000	
4	   O	18.403	16.777	63.726	O.2	1	MET343	0.000	
5	  CB	16.311	14.984	62.008	C.3	1	MET343	0.000	
6	  CG	15.448	15.292	63.230	C.3	1	MET343	0.000	
7	  SD	14.610	16.906	63.245	S.3	1	MET343	0.000	
8	  CE	14.097	17.072	61.538	C.3	1	MET343	0.000	
9	   N	20.175	19.433	62.456	N.3	2	LEU346	0.000	
10	  CA	19.320	20.485	62.994	C.3	2	LEU346	0.000	
11	   C	19.213	20.397	64.517	C.2	2	LEU346	0.000	
12	   O	19.215	21.421	65.193	O.2	2	LEU346	0.000	
13	  CB	17.934	20.443	62.352	C.3	2	LEU346	0.000	
14	  CG	17.903	20.712	60.842	C.3	2	LEU346	0.000	
15	 CD1	16.484	20.638	60.310	C.3	2	LEU346	0.000	
16	 CD2	18.528	22.056	60.505	C.3	2	LEU346	0.000	
17	   N	19.145	19.176	65.040	N.am	3	THR347	0.000	
18	  CA	19.079	18.942	66.486	C.3	3	THR347	0.000	
19	   C	20.353	19.396	67.193	C.2	3	THR347	0.000	
20	   O	20.290	20.046	68.231	O.2	3	THR347	0.000	
21	  CB	18.832	17.455	66.790	C.3	3	THR347	0.000	
22	 CG2	18.829	17.188	68.298	C.3	3	THR347	0.000	
23	 OG1	17.575	17.060	66.217	O.3	3	THR347	0.000	
24	   N	22.526	21.599	66.127	N.3	4	LEU349	0.000	
25	  CA	22.540	23.057	66.029	C.3	4	LEU349	0.000	
26	   C	21.643	23.675	67.097	C.2	4	LEU349	0.000	
27	   O	22.072	24.567	67.831	O.2	4	LEU349	0.000	
28	  CB	22.087	23.495	64.634	C.3	4	LEU349	0.000	
29	  CG	22.015	24.991	64.329	C.3	4	LEU349	0.000	
30	 CD1	23.382	25.638	64.460	C.3	4	LEU349	0.000	
31	 CD2	21.465	25.203	62.922	C.3	4	LEU349	0.000	
32	   N	20.403	23.191	67.185	N.am	5	ALA350	0.000	
33	  CA	19.460	23.676	68.194	C.3	5	ALA350	0.000	
34	   C	19.997	23.488	69.625	C.2	5	ALA350	0.000	
35	   O	19.886	24.391	70.443	O.2	5	ALA350	0.000	
36	  CB	18.105	22.998	68.031	C.3	5	ALA350	0.000	
37	   N	20.596	22.331	69.903	N.am	6	ASP351	0.000	
38	  CA	21.267	22.067	71.194	C.3	6	ASP351	0.000	
39	   C	22.280	23.160	71.568	C.2	6	ASP351	0.000	
40	   O	22.281	23.658	72.687	O.2	6	ASP351	0.000	
41	  CB	22.033	20.741	71.145	C.3	6	ASP351	0.000	
42	  CG	21.135	19.525	71.235	C.2	6	ASP351	0.000	
43	 OD1	19.933	19.669	71.541	O.co2	6	ASP351	0.000	
44	 OD2	21.653	18.408	71.009	O.co2	6	ASP351	0.000	
45	   N	22.635	26.228	70.189	N.3	7	GLU353	0.000	
46	  CA	21.976	27.538	70.243	C.3	7	GLU353	0.000	
47	   C	21.284	27.800	71.574	C.2	7	GLU353	0.000	
48	   O	21.224	28.940	72.035	O.2	7	GLU353	0.000	
49	  CB	20.945	27.666	69.134	C.3	7	GLU353	0.000	
50	  CG	21.533	27.772	67.740	C.3	7	GLU353	0.000	
51	  CD	20.465	28.050	66.718	C.2	7	GLU353	0.000	
52	 OE1	19.819	27.078	66.267	O.co2	7	GLU353	0.000	
53	 OE2	20.243	29.245	66.406	O.co2	7	GLU353	0.000	
54	   N	11.285	28.717	73.897	N.3	8	TRP383	0.000	
55	  CA	12.595	28.438	73.279	C.3	8	TRP383	0.000	
56	   C	12.484	28.156	71.775	C.2	8	TRP383	0.000	
57	   O	13.272	28.685	71.004	O.2	8	TRP383	0.000	
58	  CB	13.367	27.326	74.008	C.3	8	TRP383	0.000	
59	  CG	12.784	25.982	73.852	C.2	8	TRP383	0.000	
60	 CD1	11.812	25.428	74.613	C.2	8	TRP383	0.000	
61	 CD2	13.125	25.010	72.860	C.2	8	TRP383	0.000	
62	 CE2	12.307	23.889	73.078	C.2	8	TRP383	0.000	
63	 CE3	14.043	24.982	71.805	C.2	8	TRP383	0.000	
64	 NE1	11.516	24.167	74.162	N.pl3	8	TRP383	0.000	
65	 CZ2	12.376	22.746	72.284	C.2	8	TRP383	0.000	
66	 CZ3	14.112	23.848	71.017	C.2	8	TRP383	0.000	
67	 CH2	13.283	22.741	71.262	C.2	8	TRP383	0.000	
68	   N	11.498	27.363	71.360	N.am	9	LEU384	0.000	
69	  CA	11.374	27.016	69.935	C.3	9	LEU384	0.000	
70	   C	10.908	28.207	69.101	C.2	9	LEU384	0.000	
71	   O	11.377	28.393	67.985	O.2	9	LEU384	0.000	
72	  CB	10.472	25.806	69.710	C.3	9	LEU384	0.000	
73	  CG	10.462	25.267	68.258	C.3	9	LEU384	0.000	
74	 CD1	11.860	24.915	67.757	C.3	9	LEU384	0.000	
75	 CD2	9.565	24.036	68.172	C.3	9	LEU384	0.000	
76	   N	14.122	30.206	68.586	N.3	10	LEU387	0.000	
77	  CA	14.931	29.609	67.519	C.3	10	LEU387	0.000	
78	   C	14.341	29.891	66.140	C.2	10	LEU387	0.000	
79	   O	15.072	30.197	65.194	O.2	10	LEU387	0.000	
80	  CB	15.047	28.094	67.689	C.3	10	LEU387	0.000	
81	  CG	15.887	27.558	68.846	C.3	10	LEU387	0.000	
82	 CD1	15.958	26.044	68.720	C.3	10	LEU387	0.000	
83	 CD2	17.280	28.164	68.863	C.3	10	LEU387	0.000	
84	   N	13.022	29.759	66.032	N.am	11	MET388	0.000	
85	  CA	12.318	30.002	64.770	C.3	11	MET388	0.000	
86	   C	12.366	31.454	64.305	C.2	11	MET388	0.000	
87	   O	12.613	31.699	63.129	O.2	11	MET388	0.000	
88	  CB	10.873	29.514	64.853	C.3	11	MET388	0.000	
89	  CG	10.761	28.006	64.812	C.3	11	MET388	0.000	
90	  SD	9.051	27.474	64.952	S.3	11	MET388	0.000	
91	  CE	9.210	25.762	64.447	C.3	11	MET388	0.000	
92	   N	15.793	32.002	63.013	N.3	12	LEU391	0.000	
93	  CA	15.924	31.374	61.692	C.3	12	LEU391	0.000	
94	   C	15.287	32.226	60.606	C.2	12	LEU391	0.000	
95	   O	15.879	32.447	59.546	O.2	12	LEU391	0.000	
96	  CB	15.292	29.973	61.706	C.3	12	LEU391	0.000	
97	  CG	15.182	29.236	60.368	C.3	12	LEU391	0.000	
98	 CD1	16.571	28.938	59.830	C.3	12	LEU391	0.000	
99	 CD2	14.384	27.952	60.537	C.3	12	LEU391	0.000	
100	   N	17.453	35.342	59.972	N.3	13	ARG394	0.000	
101	  CA	18.639	34.928	59.208	C.3	13	ARG394	0.000	
102	   C	18.334	34.648	57.734	C.2	13	ARG394	0.000	
103	   O	19.189	34.862	56.866	O.2	13	ARG394	0.000	
104	  CB	19.259	33.655	59.794	C.3	13	ARG394	0.000	
105	  CG	19.913	33.815	61.148	C.3	13	ARG394	0.000	
106	  CD	20.861	32.660	61.440	C.3	13	ARG394	0.000	
107	  NE	20.235	31.340	61.564	N.pl3	13	ARG394	0.000	
108	  CZ	19.565	30.900	62.632	C.cat	13	ARG394	0.000	
109	 NH1	19.348	31.687	63.677	N.pl3	13	ARG394	0.000	
110	 NH2	19.087	29.664	62.646	N.pl3	13	ARG394	0.000	
111	   N	19.598	27.927	58.242	N.3	14	PHE404	0.000	
112	  CA	19.763	27.324	59.561	C.3	14	PHE404	0.000	
113	   C	21.118	27.726	60.128	C.2	14	PHE404	0.000	
114	   O	21.221	28.079	61.296	O.2	14	PHE404	0.000	
115	  CB	19.623	25.801	59.492	C.3	14	PHE404	0.000	
116	  CG	18.202	25.343	59.344	C.2	14	PHE404	0.000	
117	 CD1	17.377	25.237	60.458	C.2	14	PHE404	0.000	
118	 CD2	17.680	25.041	58.102	C.2	14	PHE404	0.000	
119	 CE1	16.057	24.834	60.333	C.2	14	PHE404	0.000	
120	 CE2	16.365	24.633	57.971	C.2	14	PHE404	0.000	
121	  CZ	15.551	24.534	59.084	C.2	14	PHE404	0.000	
122	   N	8.071	17.419	57.730	N.3	15	MET421	0.000	
123	  CA	8.984	18.552	57.840	C.3	15	MET421	0.000	
124	   C	8.717	19.634	56.796	C.2	15	MET421	0.000	
125	   O	8.850	20.812	57.092	O.2	15	MET421	0.000	
126	  CB	10.436	18.078	57.735	C.3	15	MET421	0.000	
127	  CG	11.484	19.160	57.985	C.3	15	MET421	0.000	
128	  SD	11.419	19.931	59.619	S.3	15	MET421	0.000	
129	  CE	11.199	18.488	60.653	C.3	15	MET421	0.000	
130	   N	6.438	22.379	57.852	N.3	16	ILE424	0.000	
131	  CA	7.045	23.350	58.766	C.3	16	ILE424	0.000	
132	   C	7.990	24.293	58.009	C.2	16	ILE424	0.000	
133	   O	7.968	25.513	58.233	O.2	16	ILE424	0.000	
134	  CB	7.742	22.650	59.946	C.3	16	ILE424	0.000	
135	 CG1	6.685	21.914	60.786	C.3	16	ILE424	0.000	
136	 CG2	8.495	23.654	60.809	C.3	16	ILE424	0.000	
137	 CD1	7.250	21.007	61.857	C.3	16	ILE424	0.000	
138	   N	7.793	28.509	57.802	N.3	17	LEU428	0.000	
139	  CA	8.959	29.335	58.116	C.3	17	LEU428	0.000	
140	   C	9.335	30.213	56.918	C.2	17	LEU428	0.000	
141	   O	9.580	31.409	57.075	O.2	17	LEU428	0.000	
142	  CB	10.148	28.456	58.546	C.3	17	LEU428	0.000	
143	  CG	9.971	27.742	59.891	C.3	17	LEU428	0.000	
144	 CD1	10.892	26.535	60.022	C.3	17	LEU428	0.000	
145	 CD2	10.196	28.714	61.035	C.3	17	LEU428	0.000	
146	   N	5.910	22.521	65.402	N.3	18	GLY521	0.000	
147	  CA	7.250	21.957	65.578	C.3	18	GLY521	0.000	
148	   C	7.390	21.062	66.797	C.2	18	GLY521	0.000	
149	   O	8.003	19.994	66.714	O.2	18	GLY521	0.000	
150	   N	6.019	17.711	66.188	N.3	19	HIS524	0.000	
151	  CA	7.004	16.905	65.455	C.3	19	HIS524	0.000	
152	   C	8.043	16.294	66.403	C.2	19	HIS524	0.000	
153	   O	8.291	15.089	66.371	O.2	19	HIS524	0.000	
154	  CB	7.695	17.755	64.389	C.3	19	HIS524	0.000	
155	  CG	8.542	16.967	63.442	C.2	19	HIS524	0.000	
156	 CD2	9.757	16.389	63.602	C.2	19	HIS524	0.000	
157	 ND1	8.156	16.697	62.147	N.2	19	HIS524	0.000	
158	 CE1	9.096	15.985	61.551	C.2	19	HIS524	0.000	
159	 NE2	10.077	15.785	62.411	N.pl3	19	HIS524	0.000	
160	   N	8.633	17.123	67.255	N.am	20	LEU525	0.000	
161	  CA	9.667	16.662	68.180	C.3	20	LEU525	0.000	
162	   C	9.136	15.655	69.204	C.2	20	LEU525	0.000	
163	   O	9.796	14.650	69.483	O.2	20	LEU525	0.000	
164	  CB	10.321	17.848	68.891	C.3	20	LEU525	0.000	
165	  CG	11.050	18.851	67.987	C.3	20	LEU525	0.000	
166	 CD1	11.645	19.975	68.821	C.3	20	LEU525	0.000	
167	 CD2	12.133	18.170	67.158	C.3	20	LEU525	0.000	
168	   N	14.025	17.542	73.130	N.3	21	VAL534	0.000	
169	  CA	13.373	18.657	73.812	C.3	21	VAL534	0.000	
170	   C	14.040	18.866	75.175	C.2	21	VAL534	0.000	
171	   O	14.122	17.922	75.965	O.2	21	VAL534	0.000	
172	  CB	11.863	18.381	74.008	C.3	21	VAL534	0.000	
173	 CG1	11.184	19.530	74.750	C.3	21	VAL534	0.000	
174	 CG2	11.186	18.138	72.667	C.3	21	VAL534	0.000	
175	   N	14.511	20.099	75.461	N.am	22	PRO535	0.000	
176	  CA	15.190	20.340	76.735	C.3	22	PRO535	0.000	
177	   C	14.236	20.268	77.921	C.2	22	PRO535	0.000	
178	   O	13.242	20.990	77.956	O.2	22	PRO535	0.000	
179	  CB	15.741	21.760	76.577	C.3	22	PRO535	0.000	
180	  CG	14.812	22.416	75.616	C.3	22	PRO535	0.000	
181	  CD	14.411	21.332	74.657	C.3	22	PRO535	0.000	
@<TRIPOS>BOND
1 1 2 1
2 2 3 1
3 2 5 1
4 3 4 2
5 5 6 1
6 6 7 1
7 7 8 1
8 9 10 1
9 10 11 1
10 10 13 1
11 11 12 2
12 11 17 1
13 13 14 1
14 14 15 1
15 14 16 1
16 17 18 1
17 18 19 1
18 18 21 1
19 19 20 2
20 21 22 1
21 21 23 1
22 24 25 1
23 25 26 1
24 25 28 1
25 26 27 2
26 26 32 1
27 28 29 1
28 29 30 1
29 29 31 1
30 32 33 1
31 33 34 1
32 33 36 1
33 34 35 2
34 34 37 1
35 37 38 1
36 38 39 1
37 38 41 1
38 39 40 2
39 41 42 1
40 42 43 2
41 42 44 1
42 45 46 1
43 46 47 1
44 46 49 1
45 47 48 2
46 49 50 1
47 50 51 1
48 51 52 2
49 51 53 1
50 54 55 1
51 55 56 1
52 55 58 1
53 56 57 2
54 56 68 1
55 58 59 1
56 59 60 2
57 59 61 1
58 60 64 1
59 61 62 2
60 61 63 1
61 62 65 1
62 63 66 2
63 62 64 1
64 65 67 2
65 66 67 1
66 68 69 1
67 69 70 1
68 69 72 1
69 70 71 2
70 72 73 1
71 73 74 1
72 73 75 1
73 76 77 1
74 77 78 1
75 77 80 1
76 78 79 2
77 78 84 1
78 80 81 1
79 81 82 1
80 81 83 1
81 84 85 1
82 85 86 1
83 85 88 1
84 86 87 2
85 88 89 1
86 89 90 1
87 90 91 1
88 92 93 1
89 93 94 1
90 93 96 1
91 94 95 2
92 96 97 1
93 97 98 1
94 97 99 1
95 100 101 1
96 101 102 1
97 101 104 1
98 102 103 2
99 104 105 1
100 105 106 1
101 106 107 1
102 107 108 1
103 108 109 2
104 108 110 1
105 111 112 1
106 112 113 1
107 112 115 1
108 113 114 2
109 115 116 1
110 116 117 2
111 116 118 1
112 117 119 1
113 118 120 2
114 119 121 2
115 120 121 1
116 122 123 1
117 123 124 1
118 123 126 1
119 124 125 2
120 126 127 1
121 127 128 1
122 128 129 1
123 130 131 1
124 131 132 1
125 131 134 1
126 132 133 2
127 134 135 1
128 134 136 1
129 135 137 1
130 138 139 1
131 139 140 1
132 139 142 1
133 140 141 2
134 142 143 1
135 143 144 1
136 143 145 1
137 146 147 1
138 147 148 1
139 148 149 2
140 150 151 1
141 151 152 1
142 151 154 1
143 152 153 2
144 152 160 1
145 154 155 1
146 155 156 2
147 155 157 1
148 156 159 1
149 157 158 2
150 158 159 1
151 160 161 1
152 161 162 1
153 161 164 1
154 162 163 2
155 164 165 1
156 165 166 1
157 165 167 1
158 168 169 1
159 169 170 1
160 169 172 1
161 170 171 2
162 170 175 1
163 172 173 1
164 172 174 1
165 175 176 1
166 175 181 1
167 176 177 1
168 176 179 1
169 177 178 2
170 179 180 1
171 180 181 1
@<TRIPOS>SUBSTRUCTURE
1	MET343	1	RESIDUE	1 A	MET
2	LEU346	9	RESIDUE	1 A	LEU
3	THR347	17	RESIDUE	1 A	THR
4	LEU349	24	RESIDUE	1 A	LEU
5	ALA350	32	RESIDUE	1 A	ALA
6	ASP351	37	RESIDUE	1 A	ASP
7	GLU353	45	RESIDUE	1 A	GLU
8	TRP383	54	RESIDUE	1 A	TRP
9	LEU384	68	RESIDUE	1 A	LEU
10	LEU387	76	RESIDUE	1 A	LEU
11	MET388	84	RESIDUE	1 A	MET
12	LEU391	92	RESIDUE	1 A	LEU
13	ARG394	100	RESIDUE	1 A	ARG
14	PHE404	111	RESIDUE	1 A	PHE
15	MET421	122	RESIDUE	1 A	MET
16	ILE424	130	RESIDUE	1 A	ILE
17	LEU428	138	RESIDUE	1 A	LEU
18	GLY521	146	RESIDUE	1 A	GLY
19	HIS524	150	RESIDUE	1 A	HIS
20	LEU525	160	RESIDUE	1 A	LEU
21	VAL534	168	RESIDUE	1 A	VAL
22	PRO535	175	RESIDUE	1 A	PRO
