# created with PyMOL 2.5.0
@<TRIPOS>MOLECULE
5fqv
196 186 24              
SMALL
USER_CHARGES
@<TRIPOS>ATOM
1	   N	18.132	15.794	60.508	N.3	1	MET343	0.000	
2	  CA	17.623	16.023	61.886	C.3	1	MET343	0.000	
3	   C	18.712	15.983	62.962	C.2	1	MET343	0.000	
4	   O	18.629	16.739	63.924	O.2	1	MET343	0.000	
5	  CB	16.471	15.054	62.292	C.3	1	MET343	0.000	
6	  CG	15.067	15.643	62.305	C.3	1	MET343	0.000	
7	  SD	14.874	17.263	63.142	S.3	1	MET343	0.000	
8	  CE	14.525	16.842	64.855	C.3	1	MET343	0.000	
9	   N	20.437	19.394	62.729	N.3	2	LEU346	0.000	
10	  CA	19.525	20.421	63.244	C.3	2	LEU346	0.000	
11	   C	19.401	20.349	64.777	C.2	2	LEU346	0.000	
12	   O	19.414	21.378	65.476	O.2	2	LEU346	0.000	
13	  CB	18.140	20.378	62.600	C.3	2	LEU346	0.000	
14	  CG	18.094	20.666	61.087	C.3	2	LEU346	0.000	
15	 CD1	16.704	20.581	60.523	C.3	2	LEU346	0.000	
16	 CD2	18.665	22.034	60.760	C.3	2	LEU346	0.000	
17	   N	19.363	19.144	65.303	N.am	3	THR347	0.000	
18	  CA	19.278	18.960	66.760	C.3	3	THR347	0.000	
19	   C	20.535	19.415	67.492	C.2	3	THR347	0.000	
20	   O	20.456	20.095	68.508	O.2	3	THR347	0.000	
21	  CB	18.980	17.487	67.091	C.3	3	THR347	0.000	
22	 CG2	18.915	17.268	68.591	C.3	3	THR347	0.000	
23	 OG1	17.722	17.109	66.486	O.3	3	THR347	0.000	
24	   N	22.785	21.563	66.453	N.3	4	LEU349	0.000	
25	  CA	22.800	23.034	66.342	C.3	4	LEU349	0.000	
26	   C	21.875	23.703	67.323	C.2	4	LEU349	0.000	
27	   O	22.230	24.672	68.047	O.2	4	LEU349	0.000	
28	  CB	22.454	23.421	64.912	C.3	4	LEU349	0.000	
29	  CG	22.596	24.902	64.499	C.3	4	LEU349	0.000	
30	 CD1	23.912	25.516	64.916	C.3	4	LEU349	0.000	
31	 CD2	22.331	25.038	62.949	C.3	4	LEU349	0.000	
32	   N	20.646	23.191	67.376	N.am	5	ALA350	0.000	
33	  CA	19.678	23.755	68.313	C.3	5	ALA350	0.000	
34	   C	20.086	23.610	69.794	C.2	5	ALA350	0.000	
35	   O	19.945	24.565	70.568	O.2	5	ALA350	0.000	
36	  CB	18.353	23.097	68.084	C.3	5	ALA350	0.000	
37	   N	20.687	22.478	70.139	N.am	6	ASP351	0.000	
38	  CA	21.160	22.212	71.515	C.3	6	ASP351	0.000	
39	   C	22.265	23.282	71.853	C.2	6	ASP351	0.000	
40	   O	22.273	23.832	72.964	O.2	6	ASP351	0.000	
41	  CB	21.858	20.880	71.569	C.3	6	ASP351	0.000	
42	  CG	20.944	19.659	71.591	C.2	6	ASP351	0.000	
43	 OD1	19.754	19.763	71.813	O.co2	6	ASP351	0.000	
44	 OD2	21.524	18.535	71.375	O.co2	6	ASP351	0.000	
45	   N	22.699	26.332	70.452	N.3	7	GLU353	0.000	
46	  CA	22.002	27.604	70.473	C.3	7	GLU353	0.000	
47	   C	21.324	27.851	71.799	C.2	7	GLU353	0.000	
48	   O	21.294	28.984	72.266	O.2	7	GLU353	0.000	
49	  CB	21.003	27.742	69.343	C.3	7	GLU353	0.000	
50	  CG	21.608	27.914	67.953	C.3	7	GLU353	0.000	
51	  CD	20.505	28.265	66.974	C.2	7	GLU353	0.000	
52	 OE1	19.717	27.307	66.682	O.co2	7	GLU353	0.000	
53	 OE2	20.395	29.472	66.583	O.co2	7	GLU353	0.000	
54	   N	11.317	28.707	74.188	N.3	8	TRP383	0.000	
55	  CA	12.644	28.444	73.551	C.3	8	TRP383	0.000	
56	   C	12.518	28.109	72.045	C.2	8	TRP383	0.000	
57	   O	13.318	28.692	71.265	O.2	8	TRP383	0.000	
58	  CB	13.413	27.375	74.310	C.3	8	TRP383	0.000	
59	  CG	12.876	26.008	74.163	C.2	8	TRP383	0.000	
60	 CD1	11.937	25.448	74.922	C.2	8	TRP383	0.000	
61	 CD2	13.177	25.059	73.127	C.2	8	TRP383	0.000	
62	 CE2	12.371	23.964	73.326	C.2	8	TRP383	0.000	
63	 CE3	14.049	25.045	72.045	C.2	8	TRP383	0.000	
64	 NE1	11.689	24.191	74.510	N.pl3	8	TRP383	0.000	
65	 CZ2	12.443	22.829	72.529	C.2	8	TRP383	0.000	
66	 CZ3	14.110	23.937	71.266	C.2	8	TRP383	0.000	
67	 CH2	13.290	22.866	71.458	C.2	8	TRP383	0.000	
68	   N	11.503	27.374	71.641	N.am	9	LEU384	0.000	
69	  CA	11.415	27.066	70.218	C.3	9	LEU384	0.000	
70	   C	10.952	28.269	69.380	C.2	9	LEU384	0.000	
71	   O	11.444	28.514	68.248	O.2	9	LEU384	0.000	
72	  CB	10.627	25.806	70.003	C.3	9	LEU384	0.000	
73	  CG	10.503	25.309	68.512	C.3	9	LEU384	0.000	
74	 CD1	11.883	25.045	67.977	C.3	9	LEU384	0.000	
75	 CD2	9.621	24.051	68.421	C.3	9	LEU384	0.000	
76	   N	14.134	30.257	68.883	N.3	10	LEU387	0.000	
77	  CA	14.943	29.684	67.806	C.3	10	LEU387	0.000	
78	   C	14.372	29.985	66.419	C.2	10	LEU387	0.000	
79	   O	15.087	30.275	65.480	O.2	10	LEU387	0.000	
80	  CB	15.120	28.188	67.924	C.3	10	LEU387	0.000	
81	  CG	15.986	27.638	69.082	C.3	10	LEU387	0.000	
82	 CD1	15.995	26.118	68.958	C.3	10	LEU387	0.000	
83	 CD2	17.367	28.264	69.126	C.3	10	LEU387	0.000	
84	   N	13.053	29.870	66.330	N.am	11	MET388	0.000	
85	  CA	12.337	30.120	65.063	C.3	11	MET388	0.000	
86	   C	12.359	31.591	64.592	C.2	11	MET388	0.000	
87	   O	12.614	31.822	63.415	O.2	11	MET388	0.000	
88	  CB	10.925	29.558	65.136	C.3	11	MET388	0.000	
89	  CG	10.810	28.060	65.139	C.3	11	MET388	0.000	
90	  SD	9.057	27.610	65.263	S.3	11	MET388	0.000	
91	  CE	9.174	25.911	64.751	C.3	11	MET388	0.000	
92	   N	15.853	32.113	63.294	N.3	12	LEU391	0.000	
93	  CA	15.994	31.465	61.981	C.3	12	LEU391	0.000	
94	   C	15.382	32.328	60.865	C.2	12	LEU391	0.000	
95	   O	15.961	32.527	59.792	O.2	12	LEU391	0.000	
96	  CB	15.383	30.062	62.006	C.3	12	LEU391	0.000	
97	  CG	15.322	29.347	60.669	C.3	12	LEU391	0.000	
98	 CD1	16.730	28.971	60.170	C.3	12	LEU391	0.000	
99	 CD2	14.500	28.096	60.721	C.3	12	LEU391	0.000	
100	   N	17.477	35.494	60.188	N.3	13	ARG394	0.000	
101	  CA	18.714	35.118	59.437	C.3	13	ARG394	0.000	
102	   C	18.401	34.779	57.963	C.2	13	ARG394	0.000	
103	   O	19.296	34.935	57.084	O.2	13	ARG394	0.000	
104	  CB	19.435	33.836	60.074	C.3	13	ARG394	0.000	
105	  CG	20.024	33.943	61.419	C.3	13	ARG394	0.000	
106	  CD	20.886	32.723	61.636	C.3	13	ARG394	0.000	
107	  NE	20.300	31.398	61.737	N.pl3	13	ARG394	0.000	
108	  CZ	19.711	30.956	62.843	C.cat	13	ARG394	0.000	
109	 NH1	19.480	31.778	63.853	N.pl3	13	ARG394	0.000	
110	 NH2	19.294	29.703	62.915	N.pl3	13	ARG394	0.000	
111	   N	19.769	27.885	58.493	N.3	14	PHE404	0.000	
112	  CA	19.981	27.313	59.834	C.3	14	PHE404	0.000	
113	   C	21.337	27.710	60.381	C.2	14	PHE404	0.000	
114	   O	21.443	28.066	61.529	O.2	14	PHE404	0.000	
115	  CB	19.764	25.791	59.787	C.3	14	PHE404	0.000	
116	  CG	18.358	25.365	59.537	C.2	14	PHE404	0.000	
117	 CD1	17.486	25.228	60.638	C.2	14	PHE404	0.000	
118	 CD2	17.866	25.017	58.297	C.2	14	PHE404	0.000	
119	 CE1	16.167	24.900	60.437	C.2	14	PHE404	0.000	
120	 CE2	16.564	24.581	58.114	C.2	14	PHE404	0.000	
121	  CZ	15.684	24.544	59.208	C.2	14	PHE404	0.000	
122	   N	8.194	17.410	58.001	N.3	15	MET421	0.000	
123	  CA	9.065	18.559	58.113	C.3	15	MET421	0.000	
124	   C	8.783	19.629	57.035	C.2	15	MET421	0.000	
125	   O	8.955	20.810	57.244	O.2	15	MET421	0.000	
126	  CB	10.516	18.076	58.054	C.3	15	MET421	0.000	
127	  CG	11.469	19.237	58.288	C.3	15	MET421	0.000	
128	  SD	11.464	19.898	59.985	S.3	15	MET421	0.000	
129	  CE	12.814	18.896	60.612	C.3	15	MET421	0.000	
130	   N	6.463	22.413	58.128	N.3	16	ILE424	0.000	
131	  CA	7.094	23.378	59.008	C.3	16	ILE424	0.000	
132	   C	8.041	24.340	58.239	C.2	16	ILE424	0.000	
133	   O	7.977	25.575	58.459	O.2	16	ILE424	0.000	
134	  CB	7.763	22.679	60.198	C.3	16	ILE424	0.000	
135	 CG1	6.626	22.027	61.026	C.3	16	ILE424	0.000	
136	 CG2	8.488	23.701	61.080	C.3	16	ILE424	0.000	
137	 CD1	7.140	21.033	62.038	C.3	16	ILE424	0.000	
138	   N	7.822	28.522	57.964	N.3	17	LEU428	0.000	
139	  CA	9.015	29.347	58.291	C.3	17	LEU428	0.000	
140	   C	9.451	30.208	57.093	C.2	17	LEU428	0.000	
141	   O	9.664	31.428	57.244	O.2	17	LEU428	0.000	
142	  CB	10.194	28.503	58.807	C.3	17	LEU428	0.000	
143	  CG	9.994	27.827	60.161	C.3	17	LEU428	0.000	
144	 CD1	10.926	26.641	60.304	C.3	17	LEU428	0.000	
145	 CD2	10.098	28.816	61.295	C.3	17	LEU428	0.000	
146	   N	5.941	22.510	65.736	N.3	18	GLY521	0.000	
147	  CA	7.275	21.935	65.934	C.3	18	GLY521	0.000	
148	   C	7.431	21.064	67.179	C.2	18	GLY521	0.000	
149	   O	8.103	19.997	67.136	O.2	18	GLY521	0.000	
150	   N	5.996	17.698	66.625	N.3	19	HIS524	0.000	
151	  CA	7.031	16.852	65.944	C.3	19	HIS524	0.000	
152	   C	8.063	16.290	66.916	C.2	19	HIS524	0.000	
153	   O	8.261	15.046	66.983	O.2	19	HIS524	0.000	
154	  CB	7.675	17.661	64.835	C.3	19	HIS524	0.000	
155	  CG	8.577	16.864	63.963	C.2	19	HIS524	0.000	
156	 CD2	9.865	16.495	64.133	C.2	19	HIS524	0.000	
157	 ND1	8.195	16.404	62.716	N.2	19	HIS524	0.000	
158	 CE1	9.209	15.760	62.163	C.2	19	HIS524	0.000	
159	 NE2	10.225	15.771	63.020	N.pl3	19	HIS524	0.000	
160	   N	8.692	17.156	67.692	N.am	20	LEU525	0.000	
161	  CA	9.714	16.738	68.657	C.3	20	LEU525	0.000	
162	   C	9.179	15.720	69.701	C.2	20	LEU525	0.000	
163	   O	9.893	14.748	70.019	O.2	20	LEU525	0.000	
164	  CB	10.356	17.906	69.333	C.3	20	LEU525	0.000	
165	  CG	11.051	18.902	68.402	C.3	20	LEU525	0.000	
166	 CD1	11.555	20.023	69.274	C.3	20	LEU525	0.000	
167	 CD2	12.236	18.235	67.650	C.3	20	LEU525	0.000	
168	   N	16.637	12.383	74.716	N.3	21	ASN532	0.000	
169	  CA	17.666	13.342	74.201	C.3	21	ASN532	0.000	
170	   C	17.104	14.471	73.330	C.2	21	ASN532	0.000	
171	   O	17.847	15.232	72.679	O.2	21	ASN532	0.000	
172	  CB	18.749	12.599	73.414	C.3	21	ASN532	0.000	
173	  CG	19.769	11.954	74.318	C.2	21	ASN532	0.000	
174	 ND2	21.046	12.218	74.060	N.pl3	21	ASN532	0.000	
175	 OD1	19.412	11.234	75.252	O.2	21	ASN532	0.000	
176	   N	15.776	14.566	73.337	N.am	22	VAL533	0.000	
177	  CA	15.033	15.524	72.543	C.3	22	VAL533	0.000	
178	   C	14.075	16.320	73.481	C.2	22	VAL533	0.000	
179	   O	13.306	15.749	74.269	O.2	22	VAL533	0.000	
180	  CB	14.278	14.777	71.396	C.3	22	VAL533	0.000	
181	 CG1	13.193	15.644	70.754	C.3	22	VAL533	0.000	
182	 CG2	15.266	14.314	70.313	C.3	22	VAL533	0.000	
183	   N	14.152	17.645	73.337	N.am	23	VAL534	0.000	
184	  CA	13.431	18.658	74.089	C.3	23	VAL534	0.000	
185	   C	14.102	18.862	75.433	C.2	23	VAL534	0.000	
186	   O	14.140	17.908	76.248	O.2	23	VAL534	0.000	
187	  CB	11.933	18.341	74.365	C.3	23	VAL534	0.000	
188	 CG1	11.275	19.528	75.119	C.3	23	VAL534	0.000	
189	 CG2	11.218	18.113	73.073	C.3	23	VAL534	0.000	
190	   N	14.508	20.114	75.717	N.am	24	PRO535	0.000	
191	  CA	15.200	20.315	76.980	C.3	24	PRO535	0.000	
192	   C	14.268	20.202	78.172	C.2	24	PRO535	0.000	
193	   O	13.250	20.848	78.202	O.2	24	PRO535	0.000	
194	  CB	15.766	21.749	76.855	C.3	24	PRO535	0.000	
195	  CG	14.895	22.447	75.863	C.3	24	PRO535	0.000	
196	  CD	14.512	21.341	74.886	C.3	24	PRO535	0.000	
@<TRIPOS>BOND
1 1 2 1
2 2 3 1
3 2 5 1
4 3 4 2
5 5 6 1
6 6 7 1
7 7 8 1
8 9 10 1
9 10 11 1
10 10 13 1
11 11 12 2
12 11 17 1
13 13 14 1
14 14 15 1
15 14 16 1
16 17 18 1
17 18 19 1
18 18 21 1
19 19 20 2
20 21 22 1
21 21 23 1
22 24 25 1
23 25 26 1
24 25 28 1
25 26 27 2
26 26 32 1
27 28 29 1
28 29 30 1
29 29 31 1
30 32 33 1
31 33 34 1
32 33 36 1
33 34 35 2
34 34 37 1
35 37 38 1
36 38 39 1
37 38 41 1
38 39 40 2
39 41 42 1
40 42 43 2
41 42 44 1
42 45 46 1
43 46 47 1
44 46 49 1
45 47 48 2
46 49 50 1
47 50 51 1
48 51 52 2
49 51 53 1
50 54 55 1
51 55 56 1
52 55 58 1
53 56 57 2
54 56 68 1
55 58 59 1
56 59 60 2
57 59 61 1
58 60 64 1
59 61 62 2
60 61 63 1
61 62 65 1
62 63 66 2
63 62 64 1
64 65 67 2
65 66 67 1
66 68 69 1
67 69 70 1
68 69 72 1
69 70 71 2
70 72 73 1
71 73 74 1
72 73 75 1
73 76 77 1
74 77 78 1
75 77 80 1
76 78 79 2
77 78 84 1
78 80 81 1
79 81 82 1
80 81 83 1
81 84 85 1
82 85 86 1
83 85 88 1
84 86 87 2
85 88 89 1
86 89 90 1
87 90 91 1
88 92 93 1
89 93 94 1
90 93 96 1
91 94 95 2
92 96 97 1
93 97 98 1
94 97 99 1
95 100 101 1
96 101 102 1
97 101 104 1
98 102 103 2
99 104 105 1
100 105 106 1
101 106 107 1
102 107 108 1
103 108 109 2
104 108 110 1
105 111 112 1
106 112 113 1
107 112 115 1
108 113 114 2
109 115 116 1
110 116 117 2
111 116 118 1
112 117 119 1
113 118 120 2
114 119 121 2
115 120 121 1
116 122 123 1
117 123 124 1
118 123 126 1
119 124 125 2
120 126 127 1
121 127 128 1
122 128 129 1
123 130 131 1
124 131 132 1
125 131 134 1
126 132 133 2
127 134 135 1
128 134 136 1
129 135 137 1
130 138 139 1
131 139 140 1
132 139 142 1
133 140 141 2
134 142 143 1
135 143 144 1
136 143 145 1
137 146 147 1
138 147 148 1
139 148 149 2
140 150 151 1
141 151 152 1
142 151 154 1
143 152 153 2
144 152 160 1
145 154 155 1
146 155 156 2
147 155 157 1
148 156 159 1
149 157 158 2
150 158 159 1
151 160 161 1
152 161 162 1
153 161 164 1
154 162 163 2
155 164 165 1
156 165 166 1
157 165 167 1
158 168 169 1
159 169 170 1
160 169 172 1
161 170 171 2
162 170 176 1
163 172 173 1
164 173 174 1
165 173 175 2
166 176 177 1
167 177 178 1
168 177 180 1
169 178 179 2
170 178 183 1
171 180 181 1
172 180 182 1
173 183 184 1
174 184 185 1
175 184 187 1
176 185 186 2
177 185 190 1
178 187 188 1
179 187 189 1
180 190 191 1
181 190 196 1
182 191 192 1
183 191 194 1
184 192 193 2
185 194 195 1
186 195 196 1
@<TRIPOS>SUBSTRUCTURE
1	MET343	1	RESIDUE	1 A	MET
2	LEU346	9	RESIDUE	1 A	LEU
3	THR347	17	RESIDUE	1 A	THR
4	LEU349	24	RESIDUE	1 A	LEU
5	ALA350	32	RESIDUE	1 A	ALA
6	ASP351	37	RESIDUE	1 A	ASP
7	GLU353	45	RESIDUE	1 A	GLU
8	TRP383	54	RESIDUE	1 A	TRP
9	LEU384	68	RESIDUE	1 A	LEU
10	LEU387	76	RESIDUE	1 A	LEU
11	MET388	84	RESIDUE	1 A	MET
12	LEU391	92	RESIDUE	1 A	LEU
13	ARG394	100	RESIDUE	1 A	ARG
14	PHE404	111	RESIDUE	1 A	PHE
15	MET421	122	RESIDUE	1 A	MET
16	ILE424	130	RESIDUE	1 A	ILE
17	LEU428	138	RESIDUE	1 A	LEU
18	GLY521	146	RESIDUE	1 A	GLY
19	HIS524	150	RESIDUE	1 A	HIS
20	LEU525	160	RESIDUE	1 A	LEU
21	ASN532	168	RESIDUE	1 A	ASN
22	VAL533	176	RESIDUE	1 A	VAL
23	VAL534	183	RESIDUE	1 A	VAL
24	PRO535	190	RESIDUE	1 A	PRO
