# created with PyMOL 2.5.0
@<TRIPOS>MOLECULE
6iar
204 194 25              
SMALL
USER_CHARGES
@<TRIPOS>ATOM
1	   N	3.920	-32.749	30.843	N.3	1	MET343	0.000	
2	  CA	4.228	-32.973	32.268	C.3	1	MET343	0.000	
3	   C	5.316	-32.035	32.803	C.2	1	MET343	0.000	
4	   O	5.256	-31.616	33.961	O.2	1	MET343	0.000	
5	  CB	4.578	-34.448	32.527	C.3	1	MET343	0.000	
6	  CG	4.687	-34.875	34.009	C.3	1	MET343	0.000	
7	  SD	3.207	-34.696	35.089	S.3	1	MET343	0.000	
8	  CE	1.972	-35.167	33.896	C.3	1	MET343	0.000	
9	   N	3.544	-28.700	33.352	N.3	2	LEU346	0.000	
10	  CA	2.655	-28.713	34.500	C.3	2	LEU346	0.000	
11	   C	3.477	-28.830	35.798	C.2	2	LEU346	0.000	
12	   O	3.104	-28.257	36.806	O.2	2	LEU346	0.000	
13	  CB	1.627	-29.816	34.408	C.3	2	LEU346	0.000	
14	  CG	0.592	-29.745	33.237	C.3	2	LEU346	0.000	
15	 CD1	-0.238	-31.004	33.237	C.3	2	LEU346	0.000	
16	 CD2	-0.305	-28.520	33.385	C.3	2	LEU346	0.000	
17	   N	4.573	-29.564	35.776	N.am	3	THR347	0.000	
18	  CA	5.448	-29.640	36.974	C.3	3	THR347	0.000	
19	   C	6.093	-28.284	37.327	C.2	3	THR347	0.000	
20	   O	6.104	-27.871	38.493	O.2	3	THR347	0.000	
21	  CB	6.524	-30.703	36.801	C.3	3	THR347	0.000	
22	 CG2	7.402	-30.720	38.030	C.3	3	THR347	0.000	
23	 OG1	5.903	-31.994	36.571	O.3	3	THR347	0.000	
24	   N	4.999	-25.321	36.542	N.3	4	LEU349	0.000	
25	  CA	3.895	-24.436	36.986	C.3	4	LEU349	0.000	
26	   C	3.562	-24.708	38.444	C.2	4	LEU349	0.000	
27	   O	3.515	-23.807	39.270	O.2	4	LEU349	0.000	
28	  CB	2.708	-24.549	36.046	C.3	4	LEU349	0.000	
29	  CG	1.390	-23.818	36.344	C.3	4	LEU349	0.000	
30	 CD1	1.642	-22.317	36.297	C.3	4	LEU349	0.000	
31	 CD2	0.244	-24.157	35.367	C.3	4	LEU349	0.000	
32	   N	3.369	-25.994	38.753	N.am	5	ALA350	0.000	
33	  CA	3.146	-26.389	40.134	C.3	5	ALA350	0.000	
34	   C	4.259	-25.974	41.129	C.2	5	ALA350	0.000	
35	   O	3.938	-25.454	42.206	O.2	5	ALA350	0.000	
36	  CB	2.930	-27.871	40.198	C.3	5	ALA350	0.000	
37	   N	5.527	-26.167	40.760	N.am	6	ASP351	0.000	
38	  CA	6.695	-25.722	41.596	C.3	6	ASP351	0.000	
39	   C	6.575	-24.221	41.918	C.2	6	ASP351	0.000	
40	   O	6.773	-23.815	43.038	O.2	6	ASP351	0.000	
41	  CB	7.998	-25.867	40.838	C.3	6	ASP351	0.000	
42	  CG	8.431	-27.271	40.693	C.2	6	ASP351	0.000	
43	 OD1	7.830	-28.140	41.354	O.co2	6	ASP351	0.000	
44	 OD2	9.392	-27.491	39.917	O.co2	6	ASP351	0.000	
45	   N	3.825	-22.156	41.748	N.3	7	GLU353	0.000	
46	  CA	2.580	-21.917	42.533	C.3	7	GLU353	0.000	
47	   C	2.785	-22.211	44.015	C.2	7	GLU353	0.000	
48	   O	2.163	-21.588	44.836	O.2	7	GLU353	0.000	
49	  CB	1.392	-22.698	42.002	C.3	7	GLU353	0.000	
50	  CG	0.857	-22.093	40.688	C.3	7	GLU353	0.000	
51	  CD	-0.437	-22.723	40.246	C.2	7	GLU353	0.000	
52	 OE1	-1.536	-22.195	40.588	O.co2	7	GLU353	0.000	
53	 OE2	-0.309	-23.775	39.573	O.co2	7	GLU353	0.000	
54	   N	-1.616	-29.615	49.738	N.3	8	TRP383	0.000	
55	  CA	-1.112	-28.725	48.657	C.3	8	TRP383	0.000	
56	   C	-1.713	-29.141	47.285	C.2	8	TRP383	0.000	
57	   O	-2.109	-28.255	46.571	O.2	8	TRP383	0.000	
58	  CB	0.397	-28.717	48.572	C.3	8	TRP383	0.000	
59	  CG	0.955	-29.938	48.140	C.2	8	TRP383	0.000	
60	 CD1	1.312	-30.957	48.935	C.2	8	TRP383	0.000	
61	 CD2	1.308	-30.327	46.803	C.2	8	TRP383	0.000	
62	 CE2	1.780	-31.628	46.872	C.2	8	TRP383	0.000	
63	 CE3	1.173	-29.739	45.543	C.2	8	TRP383	0.000	
64	 NE1	1.823	-31.970	48.208	N.pl3	8	TRP383	0.000	
65	 CZ2	2.212	-32.339	45.753	C.2	8	TRP383	0.000	
66	 CZ3	1.610	-30.434	44.446	C.2	8	TRP383	0.000	
67	 CH2	2.108	-31.730	44.539	C.2	8	TRP383	0.000	
68	   N	-1.943	-30.430	47.039	N.am	9	LEU384	0.000	
69	  CA	-2.502	-30.792	45.691	C.3	9	LEU384	0.000	
70	   C	-3.988	-30.495	45.587	C.2	9	LEU384	0.000	
71	   O	-4.464	-30.065	44.548	O.2	9	LEU384	0.000	
72	  CB	-2.194	-32.203	45.376	C.3	9	LEU384	0.000	
73	  CG	-2.611	-32.593	43.877	C.3	9	LEU384	0.000	
74	 CD1	-1.946	-31.648	42.829	C.3	9	LEU384	0.000	
75	 CD2	-2.052	-33.974	43.618	C.3	9	LEU384	0.000	
76	   N	-4.103	-26.702	44.812	N.3	10	LEU387	0.000	
77	  CA	-3.860	-26.479	43.409	C.3	10	LEU387	0.000	
78	   C	-5.096	-26.844	42.549	C.2	10	LEU387	0.000	
79	   O	-5.529	-26.072	41.666	O.2	10	LEU387	0.000	
80	  CB	-2.654	-27.278	42.915	C.3	10	LEU387	0.000	
81	  CG	-1.299	-26.901	43.397	C.3	10	LEU387	0.000	
82	 CD1	-0.297	-27.767	42.656	C.3	10	LEU387	0.000	
83	 CD2	-0.959	-25.446	43.110	C.3	10	LEU387	0.000	
84	   N	-5.711	-27.969	42.867	N.am	11	MET388	0.000	
85	  CA	-6.858	-28.471	42.123	C.3	11	MET388	0.000	
86	   C	-8.096	-27.615	42.273	C.2	11	MET388	0.000	
87	   O	-8.771	-27.370	41.266	O.2	11	MET388	0.000	
88	  CB	-7.145	-29.944	42.458	C.3	11	MET388	0.000	
89	  CG	-6.133	-30.914	41.892	C.3	11	MET388	0.000	
90	  SD	-6.505	-32.615	42.348	S.3	11	MET388	0.000	
91	  CE	-5.468	-33.485	41.223	C.3	11	MET388	0.000	
92	   N	-7.570	-24.608	40.098	N.3	12	LEU391	0.000	
93	  CA	-7.774	-24.972	38.677	C.3	12	LEU391	0.000	
94	   C	-9.239	-25.042	38.326	C.2	12	LEU391	0.000	
95	   O	-9.684	-24.509	37.293	O.2	12	LEU391	0.000	
96	  CB	-7.055	-26.309	38.383	C.3	12	LEU391	0.000	
97	  CG	-7.217	-26.902	36.962	C.3	12	LEU391	0.000	
98	 CD1	-6.647	-25.928	35.961	C.3	12	LEU391	0.000	
99	 CD2	-6.509	-28.266	36.914	C.3	12	LEU391	0.000	
100	   N	-10.708	-21.484	38.226	N.3	13	ARG394	0.000	
101	  CA	-10.234	-20.796	37.001	C.3	13	ARG394	0.000	
102	   C	-10.924	-21.317	35.754	C.2	13	ARG394	0.000	
103	   O	-11.158	-20.534	34.819	O.2	13	ARG394	0.000	
104	  CB	-8.715	-20.969	36.793	C.3	13	ARG394	0.000	
105	  CG	-7.826	-20.284	37.802	C.3	13	ARG394	0.000	
106	  CD	-6.400	-20.165	37.278	C.3	13	ARG394	0.000	
107	  NE	-5.702	-21.438	37.101	N.pl3	13	ARG394	0.000	
108	  CZ	-5.155	-22.157	38.098	C.2	13	ARG394	0.000	
109	 NH1	-4.477	-23.244	37.811	N.pl3	13	ARG394	0.000	
110	 NH2	-5.293	-21.814	39.360	N.4	13	ARG394	0.000	
111	   N	-5.094	-24.272	33.224	N.3	14	PHE404	0.000	
112	  CA	-3.921	-24.392	34.059	C.3	14	PHE404	0.000	
113	   C	-3.260	-23.031	34.216	C.2	14	PHE404	0.000	
114	   O	-2.801	-22.677	35.288	O.2	14	PHE404	0.000	
115	  CB	-2.926	-25.434	33.457	C.3	14	PHE404	0.000	
116	  CG	-3.401	-26.846	33.581	C.2	14	PHE404	0.000	
117	 CD1	-3.110	-27.571	34.747	C.2	14	PHE404	0.000	
118	 CD2	-4.076	-27.477	32.583	C.2	14	PHE404	0.000	
119	 CE1	-3.581	-28.866	34.938	C.2	14	PHE404	0.000	
120	 CE2	-4.497	-28.789	32.732	C.2	14	PHE404	0.000	
121	  CZ	-4.299	-29.481	33.923	C.2	14	PHE404	0.000	
122	   N	-3.583	-39.879	32.772	N.3	15	MET421	0.000	
123	  CA	-3.902	-38.497	32.972	C.3	15	MET421	0.000	
124	   C	-5.329	-38.139	32.536	C.2	15	MET421	0.000	
125	   O	-5.926	-37.257	33.090	O.2	15	MET421	0.000	
126	  CB	-2.857	-37.639	32.229	C.3	15	MET421	0.000	
127	  CG	-2.960	-36.137	32.479	C.3	15	MET421	0.000	
128	  SD	-2.644	-35.680	34.202	S.3	15	MET421	0.000	
129	  CE	-0.876	-35.610	34.104	C.3	15	MET421	0.000	
130	   N	-7.888	-38.204	35.299	N.3	16	ILE424	0.000	
131	  CA	-7.817	-37.087	36.250	C.3	16	ILE424	0.000	
132	   C	-8.432	-35.816	35.625	C.2	16	ILE424	0.000	
133	   O	-9.195	-35.096	36.260	O.2	16	ILE424	0.000	
134	  CB	-6.375	-36.920	36.749	C.3	16	ILE424	0.000	
135	 CG1	-6.035	-38.167	37.588	C.3	16	ILE424	0.000	
136	 CG2	-6.208	-35.665	37.620	C.3	16	ILE424	0.000	
137	 CD1	-4.582	-38.312	37.979	C.3	16	ILE424	0.000	
138	   N	-11.610	-33.477	37.065	N.3	17	LEU428	0.000	
139	  CA	-11.476	-32.024	37.268	C.3	17	LEU428	0.000	
140	   C	-12.500	-31.228	36.426	C.2	17	LEU428	0.000	
141	   O	-13.173	-30.347	36.916	O.2	17	LEU428	0.000	
142	  CB	-10.037	-31.582	36.915	C.3	17	LEU428	0.000	
143	  CG	-8.896	-32.064	37.834	C.3	17	LEU428	0.000	
144	 CD1	-7.549	-31.910	37.149	C.3	17	LEU428	0.000	
145	 CD2	-8.977	-31.222	39.094	C.3	17	LEU428	0.000	
146	   N	-4.185	-38.139	42.007	N.3	18	GLY521	0.000	
147	  CA	-3.012	-37.465	41.451	C.3	18	GLY521	0.000	
148	   C	-1.730	-37.792	42.169	C.2	18	GLY521	0.000	
149	   O	-0.676	-38.013	41.485	O.2	18	GLY521	0.000	
150	   N	-1.759	-37.857	43.499	N.am	19	MET522	0.000	
151	  CA	-0.574	-38.203	44.253	C.3	19	MET522	0.000	
152	   C	-0.090	-39.623	43.860	C.2	19	MET522	0.000	
153	   O	1.135	-39.849	43.723	O.2	19	MET522	0.000	
154	  CB	-0.780	-38.145	45.764	C.3	19	MET522	0.000	
155	  CG	-0.861	-36.816	46.476	C.3	19	MET522	0.000	
156	  SD	0.405	-35.540	46.170	S.3	19	MET522	0.000	
157	  CE	1.684	-36.068	47.279	C.3	19	MET522	0.000	
158	   N	-0.324	-40.925	40.918	N.3	20	HIS524	0.000	
159	  CA	0.455	-40.646	39.663	C.3	20	HIS524	0.000	
160	   C	1.868	-40.093	39.939	C.2	20	HIS524	0.000	
161	   O	2.891	-40.616	39.479	O.2	20	HIS524	0.000	
162	  CB	-0.345	-39.678	38.813	C.3	20	HIS524	0.000	
163	  CG	0.101	-39.597	37.397	C.2	20	HIS524	0.000	
164	 CD2	1.208	-39.047	36.842	C.2	20	HIS524	0.000	
165	 ND1	-0.643	-40.115	36.356	N.2	20	HIS524	0.000	
166	 CE1	-0.003	-39.902	35.219	C.2	20	HIS524	0.000	
167	 NE2	1.123	-39.260	35.486	N.pl3	20	HIS524	0.000	
168	   N	1.929	-39.040	40.715	N.am	21	LEU525	0.000	
169	  CA	3.202	-38.455	41.101	C.3	21	LEU525	0.000	
170	   C	4.191	-39.454	41.784	C.2	21	LEU525	0.000	
171	   O	5.324	-39.608	41.301	O.2	21	LEU525	0.000	
172	  CB	2.961	-37.215	41.941	C.3	21	LEU525	0.000	
173	  CG	2.181	-36.094	41.228	C.3	21	LEU525	0.000	
174	 CD1	2.234	-34.883	42.129	C.3	21	LEU525	0.000	
175	 CD2	2.760	-35.799	39.836	C.3	21	LEU525	0.000	
176	   N	12.689	-34.877	42.323	N.3	22	ASN532	0.000	
177	  CA	12.301	-33.503	41.921	C.3	22	ASN532	0.000	
178	   C	10.802	-33.325	41.691	C.2	22	ASN532	0.000	
179	   O	10.359	-32.340	41.085	O.2	22	ASN532	0.000	
180	  CB	13.062	-33.097	40.659	C.3	22	ASN532	0.000	
181	  CG	14.557	-33.113	40.866	C.2	22	ASN532	0.000	
182	 ND2	15.314	-32.899	39.791	N.pl3	22	ASN532	0.000	
183	 OD1	15.030	-33.321	41.986	O.2	22	ASN532	0.000	
184	   N	10.033	-34.295	42.174	N.am	23	VAL533	0.000	
185	  CA	8.589	-34.263	42.082	C.3	23	VAL533	0.000	
186	   C	8.054	-34.597	43.493	C.2	23	VAL533	0.000	
187	   O	8.611	-35.460	44.182	O.2	23	VAL533	0.000	
188	  CB	8.079	-35.216	40.937	C.3	23	VAL533	0.000	
189	 CG1	6.571	-35.479	40.991	C.3	23	VAL533	0.000	
190	 CG2	8.446	-34.661	39.552	C.3	23	VAL533	0.000	
191	   N	6.975	-33.904	43.879	N.am	24	VAL534	0.000	
192	  CA	6.375	-33.874	45.228	C.3	24	VAL534	0.000	
193	   C	7.283	-33.128	46.229	C.2	24	VAL534	0.000	
194	   O	8.415	-33.560	46.485	O.2	24	VAL534	0.000	
195	  CB	6.011	-35.271	45.817	C.3	24	VAL534	0.000	
196	 CG1	5.217	-35.109	47.126	C.3	24	VAL534	0.000	
197	 CG2	5.236	-36.111	44.814	C.3	24	VAL534	0.000	
198	   N	6.762	-32.046	46.838	N.am	25	PRO535	0.000	
199	  CA	7.579	-31.308	47.802	C.3	25	PRO535	0.000	
200	   C	7.836	-32.076	49.074	C.2	25	PRO535	0.000	
201	   O	6.906	-32.494	49.723	O.2	25	PRO535	0.000	
202	  CB	6.750	-30.040	48.073	C.3	25	PRO535	0.000	
203	  CG	5.333	-30.421	47.763	C.3	25	PRO535	0.000	
204	  CD	5.373	-31.545	46.773	C.3	25	PRO535	0.000	
@<TRIPOS>BOND
1 1 2 1
2 2 3 1
3 2 5 1
4 3 4 2
5 5 6 1
6 6 7 1
7 7 8 1
8 9 10 1
9 10 11 1
10 10 13 1
11 11 12 2
12 11 17 1
13 13 14 1
14 14 15 1
15 14 16 1
16 17 18 1
17 18 19 1
18 18 21 1
19 19 20 2
20 21 22 1
21 21 23 1
22 24 25 1
23 25 26 1
24 25 28 1
25 26 27 2
26 26 32 1
27 28 29 1
28 29 30 1
29 29 31 1
30 32 33 1
31 33 34 1
32 33 36 1
33 34 35 2
34 34 37 1
35 37 38 1
36 38 39 1
37 38 41 1
38 39 40 2
39 41 42 1
40 42 43 2
41 42 44 1
42 45 46 1
43 46 47 1
44 46 49 1
45 47 48 2
46 49 50 1
47 50 51 1
48 51 52 2
49 51 53 1
50 54 55 1
51 55 56 1
52 55 58 1
53 56 57 2
54 56 68 1
55 58 59 1
56 59 60 2
57 59 61 1
58 60 64 1
59 61 62 2
60 61 63 1
61 62 65 1
62 63 66 2
63 62 64 1
64 65 67 2
65 66 67 1
66 68 69 1
67 69 70 1
68 69 72 1
69 70 71 2
70 72 73 1
71 73 74 1
72 73 75 1
73 76 77 1
74 77 78 1
75 77 80 1
76 78 79 2
77 78 84 1
78 80 81 1
79 81 82 1
80 81 83 1
81 84 85 1
82 85 86 1
83 85 88 1
84 86 87 2
85 88 89 1
86 89 90 1
87 90 91 1
88 92 93 1
89 93 94 1
90 93 96 1
91 94 95 2
92 96 97 1
93 97 98 1
94 97 99 1
95 100 101 1
96 101 102 1
97 101 104 1
98 102 103 2
99 104 105 1
100 105 106 1
101 106 107 1
102 107 108 1
103 108 109 2
104 108 110 1
105 111 112 1
106 112 113 1
107 112 115 1
108 113 114 2
109 115 116 1
110 116 117 2
111 116 118 1
112 117 119 1
113 118 120 2
114 119 121 2
115 120 121 1
116 122 123 1
117 123 124 1
118 123 126 1
119 124 125 2
120 126 127 1
121 127 128 1
122 128 129 1
123 130 131 1
124 131 132 1
125 131 134 1
126 132 133 2
127 134 135 1
128 134 136 1
129 135 137 1
130 138 139 1
131 139 140 1
132 139 142 1
133 140 141 2
134 142 143 1
135 143 144 1
136 143 145 1
137 146 147 1
138 147 148 1
139 148 149 2
140 148 150 1
141 150 151 1
142 151 152 1
143 151 154 1
144 152 153 2
145 154 155 1
146 155 156 1
147 156 157 1
148 158 159 1
149 159 160 1
150 159 162 1
151 160 161 2
152 160 168 1
153 162 163 1
154 163 164 2
155 163 165 1
156 164 167 1
157 165 166 2
158 166 167 1
159 168 169 1
160 169 170 1
161 169 172 1
162 170 171 2
163 172 173 1
164 173 174 1
165 173 175 1
166 176 177 1
167 177 178 1
168 177 180 1
169 178 179 2
170 178 184 1
171 180 181 1
172 181 182 1
173 181 183 2
174 184 185 1
175 185 186 1
176 185 188 1
177 186 187 2
178 186 191 1
179 188 189 1
180 188 190 1
181 191 192 1
182 192 193 1
183 192 195 1
184 193 194 2
185 193 198 1
186 195 196 1
187 195 197 1
188 198 199 1
189 198 204 1
190 199 200 1
191 199 202 1
192 200 201 2
193 202 203 1
194 203 204 1
@<TRIPOS>SUBSTRUCTURE
1	MET343	1	RESIDUE	1 A	MET
2	LEU346	9	RESIDUE	1 A	LEU
3	THR347	17	RESIDUE	1 A	THR
4	LEU349	24	RESIDUE	1 A	LEU
5	ALA350	32	RESIDUE	1 A	ALA
6	ASP351	37	RESIDUE	1 A	ASP
7	GLU353	45	RESIDUE	1 A	GLU
8	TRP383	54	RESIDUE	1 A	TRP
9	LEU384	68	RESIDUE	1 A	LEU
10	LEU387	76	RESIDUE	1 A	LEU
11	MET388	84	RESIDUE	1 A	MET
12	LEU391	92	RESIDUE	1 A	LEU
13	ARG394	100	RESIDUE	1 A	ARG
14	PHE404	111	RESIDUE	1 A	PHE
15	MET421	122	RESIDUE	1 A	MET
16	ILE424	130	RESIDUE	1 A	ILE
17	LEU428	138	RESIDUE	1 A	LEU
18	GLY521	146	RESIDUE	1 A	GLY
19	MET522	150	RESIDUE	1 A	MET
20	HIS524	158	RESIDUE	1 A	HIS
21	LEU525	168	RESIDUE	1 A	LEU
22	ASN532	176	RESIDUE	1 A	ASN
23	VAL533	184	RESIDUE	1 A	VAL
24	VAL534	191	RESIDUE	1 A	VAL
25	PRO535	198	RESIDUE	1 A	PRO
